file 448948 1736443638                                          
version 3
run General-0-20250109-17:27:01-10833
attr configname General
attr datetime 20250109-17:27:01
attr datetimef 20250109-172701
attr experiment General
attr inifile omnetpp.ini
attr iterationvars ""
attr iterationvarsd ""
attr iterationvarsf ""
attr measurement ""
attr network IoTCommunication
attr processid 10833
attr repetition 0
attr replication #0
attr resultdir results
attr runnumber 0
attr seedset 0
config image-path ../../inet4.5/images
config network IoTCommunication
config sim-time-limit 20s
config *.satellite.mobility.typename StationaryMobility
config *.satellite.mobility.initialX 600m
config *.satellite.mobility.initialY 100m
config *.satellite.mobility.initialZ 500km
config *.baseStation.mobility.typename StationaryMobility
config *.baseStation.mobility.initialX 600m
config *.baseStation.mobility.initialY 300m
config *.baseStation.mobility.initialZ 0m
config *.iotDevice[*].mobility.typename StationaryMobility
config *.iotDevice[0].mobility.initialX 200m
config *.iotDevice[0].mobility.initialY 500m
config *.iotDevice[0].mobility.initialZ 0m
config *.iotDevice[1].mobility.initialX 300m
config *.iotDevice[1].mobility.initialY 500m
config *.iotDevice[1].mobility.initialZ 0m
config *.iotDevice[2].mobility.initialX 400m
config *.iotDevice[2].mobility.initialY 500m
config *.iotDevice[2].mobility.initialZ 0m
config *.iotDevice[3].mobility.initialX 500m
config *.iotDevice[3].mobility.initialY 500m
config *.iotDevice[3].mobility.initialZ 0m
config *.iotDevice[4].mobility.initialX 600m
config *.iotDevice[4].mobility.initialY 500m
config *.iotDevice[4].mobility.initialZ 0m
config *.iotDevice[5].mobility.initialX 700m
config *.iotDevice[5].mobility.initialY 500m
config *.iotDevice[5].mobility.initialZ 0m
config *.iotDevice[6].mobility.initialX 800m
config *.iotDevice[6].mobility.initialY 500m
config *.iotDevice[6].mobility.initialZ 0m
config *.iotDevice[7].mobility.initialX 900m
config *.iotDevice[7].mobility.initialY 500m
config *.iotDevice[7].mobility.initialZ 0m
config *.iotDevice[8].mobility.initialX 1000m
config *.iotDevice[8].mobility.initialY 500m
config *.iotDevice[8].mobility.initialZ 0m
config *.iotDevice[9].mobility.initialX 1100m
config *.iotDevice[9].mobility.initialY 500m
config *.iotDevice[9].mobility.initialZ 0m
config *.iotDevice[*].numApps 1
config *.iotDevice[*].app[0].typename UdpBasicApp
config *.iotDevice[*].app[0].destAddresses "\"satellite\""
config *.iotDevice[*].app[0].destPort 12345
config *.iotDevice[*].app[0].startTime "uniform(0s, 1s)"
config *.iotDevice[*].app[0].stopTime 20s
config *.iotDevice[*].app[0].messageLength 100B
config *.iotDevice[*].app[0].sendInterval "uniform(1s, 5s)"
config *.configurator.autoassignAddresses true
config **.recordScalar false
config **.recordVector false
config *.iotDevice[*].app[*].packetSent true
config *.iotDevice[*].app[*].packetReceived true
config *.iotDevice[*].app[*].packetLoss true
config *.iotDevice[*].app[*].throughput true
config *.iotDevice[*].app[*].endToEndDelay:vector true
config *.iotDevice[*].app[*].throughput:vector true
config *.satellite.ethg[*].queueingTime true
config *.baseStation.ethg[*].queueingTime true
config **.app[*].recordScalar true
config **.app[*].recordVector true

vector 0 IoTCommunication.satellite.ethernet encapPk:vector(packetBytes) ETV
attr interpolationmode none
attr recordingmode vector(packetBytes)
attr source encapPk
attr title "packets encapsulated, packetBytes"
vector 1 IoTCommunication.satellite.ethernet decapPk:vector(packetBytes) ETV
attr interpolationmode none
attr recordingmode vector(packetBytes)
attr source decapPk
attr title "packets decapsulated, packetBytes"
vector 2 IoTCommunication.satellite.ethernet pauseSent:vector ETV
attr recordingmode vector
attr title "pause sent"
vector 3 IoTCommunication.satellite.lo[0].lo rcvdPkFromHl:vector(packetBytes) ETV
attr interpolationmode none
attr recordingmode vector(packetBytes)
attr source packetReceivedFromUpper
attr title "packets received from higher layer, packetBytes"
vector 4 IoTCommunication.satellite.lo[0].lo passedUpPk:vector(packetBytes) ETV
attr interpolationmode none
attr recordingmode vector(packetBytes)
attr source packetSentToUpper
attr title "packets passed to higher layer, packetBytes"
vector 5 IoTCommunication.satellite.lo[0] packetDropInterfaceDown:vector(packetBytes) ETV
attr interpolationmode none
attr recordingmode vector(packetBytes)
attr source packetDropReasonIsInterfaceDown(packetDropped)
attr title "packet drops: interface down, packetBytes"
vector 6 IoTCommunication.satellite.lo[0] packetDropNoCarrier:vector(packetBytes) ETV
attr interpolationmode none
attr recordingmode vector(packetBytes)
attr source packetDropReasonIsNoCarrier(packetDropped)
attr title "packet drops: no carrier, packetBytes"
vector 7 IoTCommunication.satellite.eth[0].queue queueLength:vector ETV
attr autoWarmupFilter false
attr interpolationmode sample-hold
attr recordingmode vector
attr source "warmup(atomic(constant0(packetPushEnded) + count(packetPushStarted) - count(packetPulled) - count(packetRemoved) - count(packetDropped)))"
attr title "queue length"
attr unit pk
vector 8 IoTCommunication.satellite.eth[0].queue queueBitLength:vector ETV
attr autoWarmupFilter false
attr interpolationmode sample-hold
attr recordingmode vector
attr source "warmup(atomic(constant0(packetPushEnded) + sum(packetLength(packetPushStarted)) - sum(packetLength(packetPulled)) - sum(packetLength(packetRemoved)) - sum(packetLength(packetDropped))))"
attr title "queue bit length"
attr unit b
vector 9 IoTCommunication.satellite.eth[0].queue queueingTime:vector ETV
attr interpolationmode none
attr recordingmode vector
attr source queueingTime(packetPulled)
attr title "queueing times"
attr unit s
vector 10 IoTCommunication.satellite.eth[0].queue incomingPacketLengths:vector ETV
attr interpolationmode none
attr recordingmode vector
attr source packetLength(packetPushStarted)
attr title "incoming packet lengths"
attr unit b
vector 11 IoTCommunication.satellite.eth[0].queue incomingDataRate:vector ETV
attr interpolationmode linear
attr recordingmode vector
attr source throughput(packetPushStarted)
attr title "incoming datarate"
attr unit bps
vector 12 IoTCommunication.satellite.eth[0].queue outgoingPacketLengths:vector ETV
attr interpolationmode none
attr recordingmode vector
attr source packetLength(packetPulled)
attr title "outgoing packet lengths"
attr unit b
vector 13 IoTCommunication.satellite.eth[0].queue outgoingDataRate:vector ETV
attr interpolationmode linear
attr recordingmode vector
attr source throughput(packetPulled)
attr title "outgoing datarate"
attr unit bps
vector 14 IoTCommunication.satellite.eth[0].queue droppedPacketLengthsQueueOverflow:vector ETV
attr interpolationmode none
attr recordingmode vector
attr source packetLength(packetDropReasonIsQueueOverflow(packetDropped))
attr title "dropped packet lengths: queue overflow"
attr unit b
vector 15 IoTCommunication.satellite.eth[0].queue flowQueueingTime:vector ETV
attr interpolationmode none
attr recordingmode vector
attr source queueingTime(demuxFlow(packetPulled))
attr title "flow queueing times"
attr unit s
vector 16 IoTCommunication.satellite.eth[0].queue flowIncomingDataRate:vector ETV
attr interpolationmode linear
attr recordingmode vector
attr source throughput(flowPacketLength(demuxFlow(packetPushStarted)))
attr title "flow specific incoming data rate"
attr unit bps
vector 17 IoTCommunication.satellite.eth[0].queue flowOutgoingDataRate:vector ETV
attr interpolationmode linear
attr recordingmode vector
attr source throughput(flowPacketLength(demuxFlow(packetPulled)))
attr title "flow specific outgoing data rate"
attr unit bps
vector 18 IoTCommunication.satellite.eth[0].mac txPk:vector(packetBytes) ETV
attr interpolationmode none
attr recordingmode vector(packetBytes)
attr source packetSentToLower
attr title "packets transmitted, packetBytes"
vector 19 IoTCommunication.satellite.eth[0].mac rxPkOk:vector(packetBytes) ETV
attr interpolationmode none
attr recordingmode vector(packetBytes)
attr source rxPkOk
attr title "packets received OK, packetBytes"
vector 20 IoTCommunication.satellite.eth[0].mac passedUpPk:vector(packetBytes) ETV
attr interpolationmode none
attr recordingmode vector(packetBytes)
attr source packetSentToUpper
attr title "packets passed to higher layer, packetBytes"
vector 21 IoTCommunication.satellite.eth[0].mac txPausePkUnits:vector ETV
attr interpolationmode none
attr recordingmode vector
attr title "pause units sent"
vector 22 IoTCommunication.satellite.eth[0].mac rxPausePkUnits:vector ETV
attr interpolationmode none
attr recordingmode vector
attr title "pause units received"
vector 23 IoTCommunication.satellite.eth[0].mac packetReceivedFromUpper:vector(packetBytes) ETV
attr interpolationmode none
attr recordingmode vector(packetBytes)
attr source packetReceivedFromUpper
attr title "packet bytes from higher layer, packetBytes"
vector 24 IoTCommunication.satellite.eth[0].mac packetDropIncorrectlyReceived:vector(packetBytes) ETV
attr interpolationmode none
attr recordingmode vector(packetBytes)
attr source packetDropReasonIsIncorrectlyReceived(packetDropped)
attr title "packet drop: incorrectly received, packetBytes"
vector 25 IoTCommunication.satellite.eth[0].mac packetDropInterfaceDown:vector(packetBytes) ETV
attr interpolationmode none
attr recordingmode vector(packetBytes)
attr source packetDropReasonIsInterfaceDown(packetDropped)
attr title "packet drop: interface down, packetBytes"
vector 26 IoTCommunication.satellite.eth[0].mac packetDropNotAddressedToUs:vector(packetBytes) ETV
attr interpolationmode none
attr recordingmode vector(packetBytes)
attr source packetDropReasonIsNotAddressedToUs(packetDropped)
attr title "packet drop: not addressed to us, packetBytes"
vector 27 IoTCommunication.satellite.eth[0] packetDropInterfaceDown:vector(packetBytes) ETV
attr interpolationmode none
attr recordingmode vector(packetBytes)
attr source packetDropReasonIsInterfaceDown(packetDropped)
attr title "packet drops: interface down, packetBytes"
vector 28 IoTCommunication.satellite.eth[0] packetDropNoCarrier:vector(packetBytes) ETV
attr interpolationmode none
attr recordingmode vector(packetBytes)
attr source packetDropReasonIsNoCarrier(packetDropped)
attr title "packet drops: no carrier, packetBytes"
vector 29 IoTCommunication.satellite.ipv4.ip packetDropAddressResolutionFailed:vector(packetBytes) ETV
attr interpolationmode none
attr recordingmode vector(packetBytes)
attr source packetDropReasonIsAddressResolutionFailed(packetDropped)
attr title "packet drop: address resolution failed, packetBytes"
vector 30 IoTCommunication.satellite.ipv4.ip packetDropHopLimitReached:vector(packetBytes) ETV
attr interpolationmode none
attr recordingmode vector(packetBytes)
attr source packetDropReasonIsHopLimitReached(packetDropped)
attr title "packet drop: hop limit reached, packetBytes"
vector 31 IoTCommunication.satellite.ipv4.ip packetDropForwardingDisabled:vector(packetBytes) ETV
attr interpolationmode none
attr recordingmode vector(packetBytes)
attr source packetDropReasonIsForwardingDisabled(packetDropped)
attr title "packet drop: forwarding disabled, packetBytes"
vector 32 IoTCommunication.satellite.ipv4.ip packetDropNoInterfaceFound:vector(packetBytes) ETV
attr interpolationmode none
attr recordingmode vector(packetBytes)
attr source packetDropReasonIsNoInterfaceFound(packetDropped)
attr title "packet drop: no interface found, packetBytes"
vector 33 IoTCommunication.satellite.ipv4.ip packetDropNoRouteFound:vector(packetBytes) ETV
attr interpolationmode none
attr recordingmode vector(packetBytes)
attr source packetDropReasonIsNoRouteFound(packetDropped)
attr title "packet drop: no route found, packetBytes"
vector 34 IoTCommunication.satellite.ipv4.ip packetDropUndefined:vector(packetBytes) ETV
attr interpolationmode none
attr recordingmode vector(packetBytes)
attr source packetDropReasonIsUndefined(packetDropped)
attr title "packet drop: undefined, packetBytes"
vector 35 IoTCommunication.satellite.ipv4.arp arpRequestSent:vector(packetBytes) ETV
attr recordingmode vector(packetBytes)
attr source arpRequestSent
attr title "ARP request sent, packetBytes"
vector 36 IoTCommunication.satellite.ipv4.arp arpReplySent:vector(packetBytes) ETV
attr recordingmode vector(packetBytes)
attr source arpReplySent
attr title "ARP replies sent, packetBytes"
vector 37 IoTCommunication.baseStation.ethernet encapPk:vector(packetBytes) ETV
attr interpolationmode none
attr recordingmode vector(packetBytes)
attr source encapPk
attr title "packets encapsulated, packetBytes"
vector 38 IoTCommunication.baseStation.ethernet decapPk:vector(packetBytes) ETV
attr interpolationmode none
attr recordingmode vector(packetBytes)
attr source decapPk
attr title "packets decapsulated, packetBytes"
vector 39 IoTCommunication.baseStation.ethernet pauseSent:vector ETV
attr recordingmode vector
attr title "pause sent"
vector 40 IoTCommunication.baseStation.lo[0].lo rcvdPkFromHl:vector(packetBytes) ETV
attr interpolationmode none
attr recordingmode vector(packetBytes)
attr source packetReceivedFromUpper
attr title "packets received from higher layer, packetBytes"
vector 41 IoTCommunication.baseStation.lo[0].lo passedUpPk:vector(packetBytes) ETV
attr interpolationmode none
attr recordingmode vector(packetBytes)
attr source packetSentToUpper
attr title "packets passed to higher layer, packetBytes"
vector 42 IoTCommunication.baseStation.lo[0] packetDropInterfaceDown:vector(packetBytes) ETV
attr interpolationmode none
attr recordingmode vector(packetBytes)
attr source packetDropReasonIsInterfaceDown(packetDropped)
attr title "packet drops: interface down, packetBytes"
vector 43 IoTCommunication.baseStation.lo[0] packetDropNoCarrier:vector(packetBytes) ETV
attr interpolationmode none
attr recordingmode vector(packetBytes)
attr source packetDropReasonIsNoCarrier(packetDropped)
attr title "packet drops: no carrier, packetBytes"
vector 44 IoTCommunication.baseStation.eth[0].queue queueLength:vector ETV
attr autoWarmupFilter false
attr interpolationmode sample-hold
attr recordingmode vector
attr source "warmup(atomic(constant0(packetPushEnded) + count(packetPushStarted) - count(packetPulled) - count(packetRemoved) - count(packetDropped)))"
attr title "queue length"
attr unit pk
vector 45 IoTCommunication.baseStation.eth[0].queue queueBitLength:vector ETV
attr autoWarmupFilter false
attr interpolationmode sample-hold
attr recordingmode vector
attr source "warmup(atomic(constant0(packetPushEnded) + sum(packetLength(packetPushStarted)) - sum(packetLength(packetPulled)) - sum(packetLength(packetRemoved)) - sum(packetLength(packetDropped))))"
attr title "queue bit length"
attr unit b
vector 46 IoTCommunication.baseStation.eth[0].queue queueingTime:vector ETV
attr interpolationmode none
attr recordingmode vector
attr source queueingTime(packetPulled)
attr title "queueing times"
attr unit s
vector 47 IoTCommunication.baseStation.eth[0].queue incomingPacketLengths:vector ETV
attr interpolationmode none
attr recordingmode vector
attr source packetLength(packetPushStarted)
attr title "incoming packet lengths"
attr unit b
vector 48 IoTCommunication.baseStation.eth[0].queue incomingDataRate:vector ETV
attr interpolationmode linear
attr recordingmode vector
attr source throughput(packetPushStarted)
attr title "incoming datarate"
attr unit bps
vector 49 IoTCommunication.baseStation.eth[0].queue outgoingPacketLengths:vector ETV
attr interpolationmode none
attr recordingmode vector
attr source packetLength(packetPulled)
attr title "outgoing packet lengths"
attr unit b
vector 50 IoTCommunication.baseStation.eth[0].queue outgoingDataRate:vector ETV
attr interpolationmode linear
attr recordingmode vector
attr source throughput(packetPulled)
attr title "outgoing datarate"
attr unit bps
vector 51 IoTCommunication.baseStation.eth[0].queue droppedPacketLengthsQueueOverflow:vector ETV
attr interpolationmode none
attr recordingmode vector
attr source packetLength(packetDropReasonIsQueueOverflow(packetDropped))
attr title "dropped packet lengths: queue overflow"
attr unit b
vector 52 IoTCommunication.baseStation.eth[0].queue flowQueueingTime:vector ETV
attr interpolationmode none
attr recordingmode vector
attr source queueingTime(demuxFlow(packetPulled))
attr title "flow queueing times"
attr unit s
vector 53 IoTCommunication.baseStation.eth[0].queue flowIncomingDataRate:vector ETV
attr interpolationmode linear
attr recordingmode vector
attr source throughput(flowPacketLength(demuxFlow(packetPushStarted)))
attr title "flow specific incoming data rate"
attr unit bps
vector 54 IoTCommunication.baseStation.eth[0].queue flowOutgoingDataRate:vector ETV
attr interpolationmode linear
attr recordingmode vector
attr source throughput(flowPacketLength(demuxFlow(packetPulled)))
attr title "flow specific outgoing data rate"
attr unit bps
vector 55 IoTCommunication.baseStation.eth[0].mac txPk:vector(packetBytes) ETV
attr interpolationmode none
attr recordingmode vector(packetBytes)
attr source packetSentToLower
attr title "packets transmitted, packetBytes"
vector 56 IoTCommunication.baseStation.eth[0].mac rxPkOk:vector(packetBytes) ETV
attr interpolationmode none
attr recordingmode vector(packetBytes)
attr source rxPkOk
attr title "packets received OK, packetBytes"
vector 57 IoTCommunication.baseStation.eth[0].mac passedUpPk:vector(packetBytes) ETV
attr interpolationmode none
attr recordingmode vector(packetBytes)
attr source packetSentToUpper
attr title "packets passed to higher layer, packetBytes"
vector 58 IoTCommunication.baseStation.eth[0].mac txPausePkUnits:vector ETV
attr interpolationmode none
attr recordingmode vector
attr title "pause units sent"
vector 59 IoTCommunication.baseStation.eth[0].mac rxPausePkUnits:vector ETV
attr interpolationmode none
attr recordingmode vector
attr title "pause units received"
vector 60 IoTCommunication.baseStation.eth[0].mac packetReceivedFromUpper:vector(packetBytes) ETV
attr interpolationmode none
attr recordingmode vector(packetBytes)
attr source packetReceivedFromUpper
attr title "packet bytes from higher layer, packetBytes"
vector 61 IoTCommunication.baseStation.eth[0].mac packetDropIncorrectlyReceived:vector(packetBytes) ETV
attr interpolationmode none
attr recordingmode vector(packetBytes)
attr source packetDropReasonIsIncorrectlyReceived(packetDropped)
attr title "packet drop: incorrectly received, packetBytes"
vector 62 IoTCommunication.baseStation.eth[0].mac packetDropInterfaceDown:vector(packetBytes) ETV
attr interpolationmode none
attr recordingmode vector(packetBytes)
attr source packetDropReasonIsInterfaceDown(packetDropped)
attr title "packet drop: interface down, packetBytes"
vector 63 IoTCommunication.baseStation.eth[0].mac packetDropNotAddressedToUs:vector(packetBytes) ETV
attr interpolationmode none
attr recordingmode vector(packetBytes)
attr source packetDropReasonIsNotAddressedToUs(packetDropped)
attr title "packet drop: not addressed to us, packetBytes"
vector 64 IoTCommunication.baseStation.eth[0] packetDropInterfaceDown:vector(packetBytes) ETV
attr interpolationmode none
attr recordingmode vector(packetBytes)
attr source packetDropReasonIsInterfaceDown(packetDropped)
attr title "packet drops: interface down, packetBytes"
vector 65 IoTCommunication.baseStation.eth[0] packetDropNoCarrier:vector(packetBytes) ETV
attr interpolationmode none
attr recordingmode vector(packetBytes)
attr source packetDropReasonIsNoCarrier(packetDropped)
attr title "packet drops: no carrier, packetBytes"
vector 66 IoTCommunication.baseStation.eth[1].queue queueLength:vector ETV
attr autoWarmupFilter false
attr interpolationmode sample-hold
attr recordingmode vector
attr source "warmup(atomic(constant0(packetPushEnded) + count(packetPushStarted) - count(packetPulled) - count(packetRemoved) - count(packetDropped)))"
attr title "queue length"
attr unit pk
vector 67 IoTCommunication.baseStation.eth[1].queue queueBitLength:vector ETV
attr autoWarmupFilter false
attr interpolationmode sample-hold
attr recordingmode vector
attr source "warmup(atomic(constant0(packetPushEnded) + sum(packetLength(packetPushStarted)) - sum(packetLength(packetPulled)) - sum(packetLength(packetRemoved)) - sum(packetLength(packetDropped))))"
attr title "queue bit length"
attr unit b
vector 68 IoTCommunication.baseStation.eth[1].queue queueingTime:vector ETV
attr interpolationmode none
attr recordingmode vector
attr source queueingTime(packetPulled)
attr title "queueing times"
attr unit s
vector 69 IoTCommunication.baseStation.eth[1].queue incomingPacketLengths:vector ETV
attr interpolationmode none
attr recordingmode vector
attr source packetLength(packetPushStarted)
attr title "incoming packet lengths"
attr unit b
vector 70 IoTCommunication.baseStation.eth[1].queue incomingDataRate:vector ETV
attr interpolationmode linear
attr recordingmode vector
attr source throughput(packetPushStarted)
attr title "incoming datarate"
attr unit bps
vector 71 IoTCommunication.baseStation.eth[1].queue outgoingPacketLengths:vector ETV
attr interpolationmode none
attr recordingmode vector
attr source packetLength(packetPulled)
attr title "outgoing packet lengths"
attr unit b
vector 72 IoTCommunication.baseStation.eth[1].queue outgoingDataRate:vector ETV
attr interpolationmode linear
attr recordingmode vector
attr source throughput(packetPulled)
attr title "outgoing datarate"
attr unit bps
vector 73 IoTCommunication.baseStation.eth[1].queue droppedPacketLengthsQueueOverflow:vector ETV
attr interpolationmode none
attr recordingmode vector
attr source packetLength(packetDropReasonIsQueueOverflow(packetDropped))
attr title "dropped packet lengths: queue overflow"
attr unit b
vector 74 IoTCommunication.baseStation.eth[1].queue flowQueueingTime:vector ETV
attr interpolationmode none
attr recordingmode vector
attr source queueingTime(demuxFlow(packetPulled))
attr title "flow queueing times"
attr unit s
vector 75 IoTCommunication.baseStation.eth[1].queue flowIncomingDataRate:vector ETV
attr interpolationmode linear
attr recordingmode vector
attr source throughput(flowPacketLength(demuxFlow(packetPushStarted)))
attr title "flow specific incoming data rate"
attr unit bps
vector 76 IoTCommunication.baseStation.eth[1].queue flowOutgoingDataRate:vector ETV
attr interpolationmode linear
attr recordingmode vector
attr source throughput(flowPacketLength(demuxFlow(packetPulled)))
attr title "flow specific outgoing data rate"
attr unit bps
vector 77 IoTCommunication.baseStation.eth[1].mac txPk:vector(packetBytes) ETV
attr interpolationmode none
attr recordingmode vector(packetBytes)
attr source packetSentToLower
attr title "packets transmitted, packetBytes"
vector 78 IoTCommunication.baseStation.eth[1].mac rxPkOk:vector(packetBytes) ETV
attr interpolationmode none
attr recordingmode vector(packetBytes)
attr source rxPkOk
attr title "packets received OK, packetBytes"
vector 79 IoTCommunication.baseStation.eth[1].mac passedUpPk:vector(packetBytes) ETV
attr interpolationmode none
attr recordingmode vector(packetBytes)
attr source packetSentToUpper
attr title "packets passed to higher layer, packetBytes"
vector 80 IoTCommunication.baseStation.eth[1].mac txPausePkUnits:vector ETV
attr interpolationmode none
attr recordingmode vector
attr title "pause units sent"
vector 81 IoTCommunication.baseStation.eth[1].mac rxPausePkUnits:vector ETV
attr interpolationmode none
attr recordingmode vector
attr title "pause units received"
vector 82 IoTCommunication.baseStation.eth[1].mac packetReceivedFromUpper:vector(packetBytes) ETV
attr interpolationmode none
attr recordingmode vector(packetBytes)
attr source packetReceivedFromUpper
attr title "packet bytes from higher layer, packetBytes"
vector 83 IoTCommunication.baseStation.eth[1].mac packetDropIncorrectlyReceived:vector(packetBytes) ETV
attr interpolationmode none
attr recordingmode vector(packetBytes)
attr source packetDropReasonIsIncorrectlyReceived(packetDropped)
attr title "packet drop: incorrectly received, packetBytes"
vector 84 IoTCommunication.baseStation.eth[1].mac packetDropInterfaceDown:vector(packetBytes) ETV
attr interpolationmode none
attr recordingmode vector(packetBytes)
attr source packetDropReasonIsInterfaceDown(packetDropped)
attr title "packet drop: interface down, packetBytes"
vector 85 IoTCommunication.baseStation.eth[1].mac packetDropNotAddressedToUs:vector(packetBytes) ETV
attr interpolationmode none
attr recordingmode vector(packetBytes)
attr source packetDropReasonIsNotAddressedToUs(packetDropped)
attr title "packet drop: not addressed to us, packetBytes"
vector 86 IoTCommunication.baseStation.eth[1] packetDropInterfaceDown:vector(packetBytes) ETV
attr interpolationmode none
attr recordingmode vector(packetBytes)
attr source packetDropReasonIsInterfaceDown(packetDropped)
attr title "packet drops: interface down, packetBytes"
vector 87 IoTCommunication.baseStation.eth[1] packetDropNoCarrier:vector(packetBytes) ETV
attr interpolationmode none
attr recordingmode vector(packetBytes)
attr source packetDropReasonIsNoCarrier(packetDropped)
attr title "packet drops: no carrier, packetBytes"
vector 88 IoTCommunication.baseStation.eth[2].queue queueLength:vector ETV
attr autoWarmupFilter false
attr interpolationmode sample-hold
attr recordingmode vector
attr source "warmup(atomic(constant0(packetPushEnded) + count(packetPushStarted) - count(packetPulled) - count(packetRemoved) - count(packetDropped)))"
attr title "queue length"
attr unit pk
vector 89 IoTCommunication.baseStation.eth[2].queue queueBitLength:vector ETV
attr autoWarmupFilter false
attr interpolationmode sample-hold
attr recordingmode vector
attr source "warmup(atomic(constant0(packetPushEnded) + sum(packetLength(packetPushStarted)) - sum(packetLength(packetPulled)) - sum(packetLength(packetRemoved)) - sum(packetLength(packetDropped))))"
attr title "queue bit length"
attr unit b
vector 90 IoTCommunication.baseStation.eth[2].queue queueingTime:vector ETV
attr interpolationmode none
attr recordingmode vector
attr source queueingTime(packetPulled)
attr title "queueing times"
attr unit s
vector 91 IoTCommunication.baseStation.eth[2].queue incomingPacketLengths:vector ETV
attr interpolationmode none
attr recordingmode vector
attr source packetLength(packetPushStarted)
attr title "incoming packet lengths"
attr unit b
vector 92 IoTCommunication.baseStation.eth[2].queue incomingDataRate:vector ETV
attr interpolationmode linear
attr recordingmode vector
attr source throughput(packetPushStarted)
attr title "incoming datarate"
attr unit bps
vector 93 IoTCommunication.baseStation.eth[2].queue outgoingPacketLengths:vector ETV
attr interpolationmode none
attr recordingmode vector
attr source packetLength(packetPulled)
attr title "outgoing packet lengths"
attr unit b
vector 94 IoTCommunication.baseStation.eth[2].queue outgoingDataRate:vector ETV
attr interpolationmode linear
attr recordingmode vector
attr source throughput(packetPulled)
attr title "outgoing datarate"
attr unit bps
vector 95 IoTCommunication.baseStation.eth[2].queue droppedPacketLengthsQueueOverflow:vector ETV
attr interpolationmode none
attr recordingmode vector
attr source packetLength(packetDropReasonIsQueueOverflow(packetDropped))
attr title "dropped packet lengths: queue overflow"
attr unit b
vector 96 IoTCommunication.baseStation.eth[2].queue flowQueueingTime:vector ETV
attr interpolationmode none
attr recordingmode vector
attr source queueingTime(demuxFlow(packetPulled))
attr title "flow queueing times"
attr unit s
vector 97 IoTCommunication.baseStation.eth[2].queue flowIncomingDataRate:vector ETV
attr interpolationmode linear
attr recordingmode vector
attr source throughput(flowPacketLength(demuxFlow(packetPushStarted)))
attr title "flow specific incoming data rate"
attr unit bps
vector 98 IoTCommunication.baseStation.eth[2].queue flowOutgoingDataRate:vector ETV
attr interpolationmode linear
attr recordingmode vector
attr source throughput(flowPacketLength(demuxFlow(packetPulled)))
attr title "flow specific outgoing data rate"
attr unit bps
vector 99 IoTCommunication.baseStation.eth[2].mac txPk:vector(packetBytes) ETV
attr interpolationmode none
attr recordingmode vector(packetBytes)
attr source packetSentToLower
attr title "packets transmitted, packetBytes"
vector 100 IoTCommunication.baseStation.eth[2].mac rxPkOk:vector(packetBytes) ETV
attr interpolationmode none
attr recordingmode vector(packetBytes)
attr source rxPkOk
attr title "packets received OK, packetBytes"
vector 101 IoTCommunication.baseStation.eth[2].mac passedUpPk:vector(packetBytes) ETV
attr interpolationmode none
attr recordingmode vector(packetBytes)
attr source packetSentToUpper
attr title "packets passed to higher layer, packetBytes"
vector 102 IoTCommunication.baseStation.eth[2].mac txPausePkUnits:vector ETV
attr interpolationmode none
attr recordingmode vector
attr title "pause units sent"
vector 103 IoTCommunication.baseStation.eth[2].mac rxPausePkUnits:vector ETV
attr interpolationmode none
attr recordingmode vector
attr title "pause units received"
vector 104 IoTCommunication.baseStation.eth[2].mac packetReceivedFromUpper:vector(packetBytes) ETV
attr interpolationmode none
attr recordingmode vector(packetBytes)
attr source packetReceivedFromUpper
attr title "packet bytes from higher layer, packetBytes"
vector 105 IoTCommunication.baseStation.eth[2].mac packetDropIncorrectlyReceived:vector(packetBytes) ETV
attr interpolationmode none
attr recordingmode vector(packetBytes)
attr source packetDropReasonIsIncorrectlyReceived(packetDropped)
attr title "packet drop: incorrectly received, packetBytes"
vector 106 IoTCommunication.baseStation.eth[2].mac packetDropInterfaceDown:vector(packetBytes) ETV
attr interpolationmode none
attr recordingmode vector(packetBytes)
attr source packetDropReasonIsInterfaceDown(packetDropped)
attr title "packet drop: interface down, packetBytes"
vector 107 IoTCommunication.baseStation.eth[2].mac packetDropNotAddressedToUs:vector(packetBytes) ETV
attr interpolationmode none
attr recordingmode vector(packetBytes)
attr source packetDropReasonIsNotAddressedToUs(packetDropped)
attr title "packet drop: not addressed to us, packetBytes"
vector 108 IoTCommunication.baseStation.eth[2] packetDropInterfaceDown:vector(packetBytes) ETV
attr interpolationmode none
attr recordingmode vector(packetBytes)
attr source packetDropReasonIsInterfaceDown(packetDropped)
attr title "packet drops: interface down, packetBytes"
vector 109 IoTCommunication.baseStation.eth[2] packetDropNoCarrier:vector(packetBytes) ETV
attr interpolationmode none
attr recordingmode vector(packetBytes)
attr source packetDropReasonIsNoCarrier(packetDropped)
attr title "packet drops: no carrier, packetBytes"
vector 110 IoTCommunication.baseStation.eth[3].queue queueLength:vector ETV
attr autoWarmupFilter false
attr interpolationmode sample-hold
attr recordingmode vector
attr source "warmup(atomic(constant0(packetPushEnded) + count(packetPushStarted) - count(packetPulled) - count(packetRemoved) - count(packetDropped)))"
attr title "queue length"
attr unit pk
vector 111 IoTCommunication.baseStation.eth[3].queue queueBitLength:vector ETV
attr autoWarmupFilter false
attr interpolationmode sample-hold
attr recordingmode vector
attr source "warmup(atomic(constant0(packetPushEnded) + sum(packetLength(packetPushStarted)) - sum(packetLength(packetPulled)) - sum(packetLength(packetRemoved)) - sum(packetLength(packetDropped))))"
attr title "queue bit length"
attr unit b
vector 112 IoTCommunication.baseStation.eth[3].queue queueingTime:vector ETV
attr interpolationmode none
attr recordingmode vector
attr source queueingTime(packetPulled)
attr title "queueing times"
attr unit s
vector 113 IoTCommunication.baseStation.eth[3].queue incomingPacketLengths:vector ETV
attr interpolationmode none
attr recordingmode vector
attr source packetLength(packetPushStarted)
attr title "incoming packet lengths"
attr unit b
vector 114 IoTCommunication.baseStation.eth[3].queue incomingDataRate:vector ETV
attr interpolationmode linear
attr recordingmode vector
attr source throughput(packetPushStarted)
attr title "incoming datarate"
attr unit bps
vector 115 IoTCommunication.baseStation.eth[3].queue outgoingPacketLengths:vector ETV
attr interpolationmode none
attr recordingmode vector
attr source packetLength(packetPulled)
attr title "outgoing packet lengths"
attr unit b
vector 116 IoTCommunication.baseStation.eth[3].queue outgoingDataRate:vector ETV
attr interpolationmode linear
attr recordingmode vector
attr source throughput(packetPulled)
attr title "outgoing datarate"
attr unit bps
vector 117 IoTCommunication.baseStation.eth[3].queue droppedPacketLengthsQueueOverflow:vector ETV
attr interpolationmode none
attr recordingmode vector
attr source packetLength(packetDropReasonIsQueueOverflow(packetDropped))
attr title "dropped packet lengths: queue overflow"
attr unit b
vector 118 IoTCommunication.baseStation.eth[3].queue flowQueueingTime:vector ETV
attr interpolationmode none
attr recordingmode vector
attr source queueingTime(demuxFlow(packetPulled))
attr title "flow queueing times"
attr unit s
vector 119 IoTCommunication.baseStation.eth[3].queue flowIncomingDataRate:vector ETV
attr interpolationmode linear
attr recordingmode vector
attr source throughput(flowPacketLength(demuxFlow(packetPushStarted)))
attr title "flow specific incoming data rate"
attr unit bps
vector 120 IoTCommunication.baseStation.eth[3].queue flowOutgoingDataRate:vector ETV
attr interpolationmode linear
attr recordingmode vector
attr source throughput(flowPacketLength(demuxFlow(packetPulled)))
attr title "flow specific outgoing data rate"
attr unit bps
vector 121 IoTCommunication.baseStation.eth[3].mac txPk:vector(packetBytes) ETV
attr interpolationmode none
attr recordingmode vector(packetBytes)
attr source packetSentToLower
attr title "packets transmitted, packetBytes"
vector 122 IoTCommunication.baseStation.eth[3].mac rxPkOk:vector(packetBytes) ETV
attr interpolationmode none
attr recordingmode vector(packetBytes)
attr source rxPkOk
attr title "packets received OK, packetBytes"
vector 123 IoTCommunication.baseStation.eth[3].mac passedUpPk:vector(packetBytes) ETV
attr interpolationmode none
attr recordingmode vector(packetBytes)
attr source packetSentToUpper
attr title "packets passed to higher layer, packetBytes"
vector 124 IoTCommunication.baseStation.eth[3].mac txPausePkUnits:vector ETV
attr interpolationmode none
attr recordingmode vector
attr title "pause units sent"
vector 125 IoTCommunication.baseStation.eth[3].mac rxPausePkUnits:vector ETV
attr interpolationmode none
attr recordingmode vector
attr title "pause units received"
vector 126 IoTCommunication.baseStation.eth[3].mac packetReceivedFromUpper:vector(packetBytes) ETV
attr interpolationmode none
attr recordingmode vector(packetBytes)
attr source packetReceivedFromUpper
attr title "packet bytes from higher layer, packetBytes"
vector 127 IoTCommunication.baseStation.eth[3].mac packetDropIncorrectlyReceived:vector(packetBytes) ETV
attr interpolationmode none
attr recordingmode vector(packetBytes)
attr source packetDropReasonIsIncorrectlyReceived(packetDropped)
attr title "packet drop: incorrectly received, packetBytes"
vector 128 IoTCommunication.baseStation.eth[3].mac packetDropInterfaceDown:vector(packetBytes) ETV
attr interpolationmode none
attr recordingmode vector(packetBytes)
attr source packetDropReasonIsInterfaceDown(packetDropped)
attr title "packet drop: interface down, packetBytes"
vector 129 IoTCommunication.baseStation.eth[3].mac packetDropNotAddressedToUs:vector(packetBytes) ETV
attr interpolationmode none
attr recordingmode vector(packetBytes)
attr source packetDropReasonIsNotAddressedToUs(packetDropped)
attr title "packet drop: not addressed to us, packetBytes"
vector 130 IoTCommunication.baseStation.eth[3] packetDropInterfaceDown:vector(packetBytes) ETV
attr interpolationmode none
attr recordingmode vector(packetBytes)
attr source packetDropReasonIsInterfaceDown(packetDropped)
attr title "packet drops: interface down, packetBytes"
vector 131 IoTCommunication.baseStation.eth[3] packetDropNoCarrier:vector(packetBytes) ETV
attr interpolationmode none
attr recordingmode vector(packetBytes)
attr source packetDropReasonIsNoCarrier(packetDropped)
attr title "packet drops: no carrier, packetBytes"
vector 132 IoTCommunication.baseStation.eth[4].queue queueLength:vector ETV
attr autoWarmupFilter false
attr interpolationmode sample-hold
attr recordingmode vector
attr source "warmup(atomic(constant0(packetPushEnded) + count(packetPushStarted) - count(packetPulled) - count(packetRemoved) - count(packetDropped)))"
attr title "queue length"
attr unit pk
vector 133 IoTCommunication.baseStation.eth[4].queue queueBitLength:vector ETV
attr autoWarmupFilter false
attr interpolationmode sample-hold
attr recordingmode vector
attr source "warmup(atomic(constant0(packetPushEnded) + sum(packetLength(packetPushStarted)) - sum(packetLength(packetPulled)) - sum(packetLength(packetRemoved)) - sum(packetLength(packetDropped))))"
attr title "queue bit length"
attr unit b
vector 134 IoTCommunication.baseStation.eth[4].queue queueingTime:vector ETV
attr interpolationmode none
attr recordingmode vector
attr source queueingTime(packetPulled)
attr title "queueing times"
attr unit s
vector 135 IoTCommunication.baseStation.eth[4].queue incomingPacketLengths:vector ETV
attr interpolationmode none
attr recordingmode vector
attr source packetLength(packetPushStarted)
attr title "incoming packet lengths"
attr unit b
vector 136 IoTCommunication.baseStation.eth[4].queue incomingDataRate:vector ETV
attr interpolationmode linear
attr recordingmode vector
attr source throughput(packetPushStarted)
attr title "incoming datarate"
attr unit bps
vector 137 IoTCommunication.baseStation.eth[4].queue outgoingPacketLengths:vector ETV
attr interpolationmode none
attr recordingmode vector
attr source packetLength(packetPulled)
attr title "outgoing packet lengths"
attr unit b
vector 138 IoTCommunication.baseStation.eth[4].queue outgoingDataRate:vector ETV
attr interpolationmode linear
attr recordingmode vector
attr source throughput(packetPulled)
attr title "outgoing datarate"
attr unit bps
vector 139 IoTCommunication.baseStation.eth[4].queue droppedPacketLengthsQueueOverflow:vector ETV
attr interpolationmode none
attr recordingmode vector
attr source packetLength(packetDropReasonIsQueueOverflow(packetDropped))
attr title "dropped packet lengths: queue overflow"
attr unit b
vector 140 IoTCommunication.baseStation.eth[4].queue flowQueueingTime:vector ETV
attr interpolationmode none
attr recordingmode vector
attr source queueingTime(demuxFlow(packetPulled))
attr title "flow queueing times"
attr unit s
vector 141 IoTCommunication.baseStation.eth[4].queue flowIncomingDataRate:vector ETV
attr interpolationmode linear
attr recordingmode vector
attr source throughput(flowPacketLength(demuxFlow(packetPushStarted)))
attr title "flow specific incoming data rate"
attr unit bps
vector 142 IoTCommunication.baseStation.eth[4].queue flowOutgoingDataRate:vector ETV
attr interpolationmode linear
attr recordingmode vector
attr source throughput(flowPacketLength(demuxFlow(packetPulled)))
attr title "flow specific outgoing data rate"
attr unit bps
vector 143 IoTCommunication.baseStation.eth[4].mac txPk:vector(packetBytes) ETV
attr interpolationmode none
attr recordingmode vector(packetBytes)
attr source packetSentToLower
attr title "packets transmitted, packetBytes"
vector 144 IoTCommunication.baseStation.eth[4].mac rxPkOk:vector(packetBytes) ETV
attr interpolationmode none
attr recordingmode vector(packetBytes)
attr source rxPkOk
attr title "packets received OK, packetBytes"
vector 145 IoTCommunication.baseStation.eth[4].mac passedUpPk:vector(packetBytes) ETV
attr interpolationmode none
attr recordingmode vector(packetBytes)
attr source packetSentToUpper
attr title "packets passed to higher layer, packetBytes"
vector 146 IoTCommunication.baseStation.eth[4].mac txPausePkUnits:vector ETV
attr interpolationmode none
attr recordingmode vector
attr title "pause units sent"
vector 147 IoTCommunication.baseStation.eth[4].mac rxPausePkUnits:vector ETV
attr interpolationmode none
attr recordingmode vector
attr title "pause units received"
vector 148 IoTCommunication.baseStation.eth[4].mac packetReceivedFromUpper:vector(packetBytes) ETV
attr interpolationmode none
attr recordingmode vector(packetBytes)
attr source packetReceivedFromUpper
attr title "packet bytes from higher layer, packetBytes"
vector 149 IoTCommunication.baseStation.eth[4].mac packetDropIncorrectlyReceived:vector(packetBytes) ETV
attr interpolationmode none
attr recordingmode vector(packetBytes)
attr source packetDropReasonIsIncorrectlyReceived(packetDropped)
attr title "packet drop: incorrectly received, packetBytes"
vector 150 IoTCommunication.baseStation.eth[4].mac packetDropInterfaceDown:vector(packetBytes) ETV
attr interpolationmode none
attr recordingmode vector(packetBytes)
attr source packetDropReasonIsInterfaceDown(packetDropped)
attr title "packet drop: interface down, packetBytes"
vector 151 IoTCommunication.baseStation.eth[4].mac packetDropNotAddressedToUs:vector(packetBytes) ETV
attr interpolationmode none
attr recordingmode vector(packetBytes)
attr source packetDropReasonIsNotAddressedToUs(packetDropped)
attr title "packet drop: not addressed to us, packetBytes"
vector 152 IoTCommunication.baseStation.eth[4] packetDropInterfaceDown:vector(packetBytes) ETV
attr interpolationmode none
attr recordingmode vector(packetBytes)
attr source packetDropReasonIsInterfaceDown(packetDropped)
attr title "packet drops: interface down, packetBytes"
vector 153 IoTCommunication.baseStation.eth[4] packetDropNoCarrier:vector(packetBytes) ETV
attr interpolationmode none
attr recordingmode vector(packetBytes)
attr source packetDropReasonIsNoCarrier(packetDropped)
attr title "packet drops: no carrier, packetBytes"
vector 154 IoTCommunication.baseStation.eth[5].queue queueLength:vector ETV
attr autoWarmupFilter false
attr interpolationmode sample-hold
attr recordingmode vector
attr source "warmup(atomic(constant0(packetPushEnded) + count(packetPushStarted) - count(packetPulled) - count(packetRemoved) - count(packetDropped)))"
attr title "queue length"
attr unit pk
vector 155 IoTCommunication.baseStation.eth[5].queue queueBitLength:vector ETV
attr autoWarmupFilter false
attr interpolationmode sample-hold
attr recordingmode vector
attr source "warmup(atomic(constant0(packetPushEnded) + sum(packetLength(packetPushStarted)) - sum(packetLength(packetPulled)) - sum(packetLength(packetRemoved)) - sum(packetLength(packetDropped))))"
attr title "queue bit length"
attr unit b
vector 156 IoTCommunication.baseStation.eth[5].queue queueingTime:vector ETV
attr interpolationmode none
attr recordingmode vector
attr source queueingTime(packetPulled)
attr title "queueing times"
attr unit s
vector 157 IoTCommunication.baseStation.eth[5].queue incomingPacketLengths:vector ETV
attr interpolationmode none
attr recordingmode vector
attr source packetLength(packetPushStarted)
attr title "incoming packet lengths"
attr unit b
vector 158 IoTCommunication.baseStation.eth[5].queue incomingDataRate:vector ETV
attr interpolationmode linear
attr recordingmode vector
attr source throughput(packetPushStarted)
attr title "incoming datarate"
attr unit bps
vector 159 IoTCommunication.baseStation.eth[5].queue outgoingPacketLengths:vector ETV
attr interpolationmode none
attr recordingmode vector
attr source packetLength(packetPulled)
attr title "outgoing packet lengths"
attr unit b
vector 160 IoTCommunication.baseStation.eth[5].queue outgoingDataRate:vector ETV
attr interpolationmode linear
attr recordingmode vector
attr source throughput(packetPulled)
attr title "outgoing datarate"
attr unit bps
vector 161 IoTCommunication.baseStation.eth[5].queue droppedPacketLengthsQueueOverflow:vector ETV
attr interpolationmode none
attr recordingmode vector
attr source packetLength(packetDropReasonIsQueueOverflow(packetDropped))
attr title "dropped packet lengths: queue overflow"
attr unit b
vector 162 IoTCommunication.baseStation.eth[5].queue flowQueueingTime:vector ETV
attr interpolationmode none
attr recordingmode vector
attr source queueingTime(demuxFlow(packetPulled))
attr title "flow queueing times"
attr unit s
vector 163 IoTCommunication.baseStation.eth[5].queue flowIncomingDataRate:vector ETV
attr interpolationmode linear
attr recordingmode vector
attr source throughput(flowPacketLength(demuxFlow(packetPushStarted)))
attr title "flow specific incoming data rate"
attr unit bps
vector 164 IoTCommunication.baseStation.eth[5].queue flowOutgoingDataRate:vector ETV
attr interpolationmode linear
attr recordingmode vector
attr source throughput(flowPacketLength(demuxFlow(packetPulled)))
attr title "flow specific outgoing data rate"
attr unit bps
vector 165 IoTCommunication.baseStation.eth[5].mac txPk:vector(packetBytes) ETV
attr interpolationmode none
attr recordingmode vector(packetBytes)
attr source packetSentToLower
attr title "packets transmitted, packetBytes"
vector 166 IoTCommunication.baseStation.eth[5].mac rxPkOk:vector(packetBytes) ETV
attr interpolationmode none
attr recordingmode vector(packetBytes)
attr source rxPkOk
attr title "packets received OK, packetBytes"
vector 167 IoTCommunication.baseStation.eth[5].mac passedUpPk:vector(packetBytes) ETV
attr interpolationmode none
attr recordingmode vector(packetBytes)
attr source packetSentToUpper
attr title "packets passed to higher layer, packetBytes"
vector 168 IoTCommunication.baseStation.eth[5].mac txPausePkUnits:vector ETV
attr interpolationmode none
attr recordingmode vector
attr title "pause units sent"
vector 169 IoTCommunication.baseStation.eth[5].mac rxPausePkUnits:vector ETV
attr interpolationmode none
attr recordingmode vector
attr title "pause units received"
vector 170 IoTCommunication.baseStation.eth[5].mac packetReceivedFromUpper:vector(packetBytes) ETV
attr interpolationmode none
attr recordingmode vector(packetBytes)
attr source packetReceivedFromUpper
attr title "packet bytes from higher layer, packetBytes"
vector 171 IoTCommunication.baseStation.eth[5].mac packetDropIncorrectlyReceived:vector(packetBytes) ETV
attr interpolationmode none
attr recordingmode vector(packetBytes)
attr source packetDropReasonIsIncorrectlyReceived(packetDropped)
attr title "packet drop: incorrectly received, packetBytes"
vector 172 IoTCommunication.baseStation.eth[5].mac packetDropInterfaceDown:vector(packetBytes) ETV
attr interpolationmode none
attr recordingmode vector(packetBytes)
attr source packetDropReasonIsInterfaceDown(packetDropped)
attr title "packet drop: interface down, packetBytes"
vector 173 IoTCommunication.baseStation.eth[5].mac packetDropNotAddressedToUs:vector(packetBytes) ETV
attr interpolationmode none
attr recordingmode vector(packetBytes)
attr source packetDropReasonIsNotAddressedToUs(packetDropped)
attr title "packet drop: not addressed to us, packetBytes"
vector 174 IoTCommunication.baseStation.eth[5] packetDropInterfaceDown:vector(packetBytes) ETV
attr interpolationmode none
attr recordingmode vector(packetBytes)
attr source packetDropReasonIsInterfaceDown(packetDropped)
attr title "packet drops: interface down, packetBytes"
vector 175 IoTCommunication.baseStation.eth[5] packetDropNoCarrier:vector(packetBytes) ETV
attr interpolationmode none
attr recordingmode vector(packetBytes)
attr source packetDropReasonIsNoCarrier(packetDropped)
attr title "packet drops: no carrier, packetBytes"
vector 176 IoTCommunication.baseStation.eth[6].queue queueLength:vector ETV
attr autoWarmupFilter false
attr interpolationmode sample-hold
attr recordingmode vector
attr source "warmup(atomic(constant0(packetPushEnded) + count(packetPushStarted) - count(packetPulled) - count(packetRemoved) - count(packetDropped)))"
attr title "queue length"
attr unit pk
vector 177 IoTCommunication.baseStation.eth[6].queue queueBitLength:vector ETV
attr autoWarmupFilter false
attr interpolationmode sample-hold
attr recordingmode vector
attr source "warmup(atomic(constant0(packetPushEnded) + sum(packetLength(packetPushStarted)) - sum(packetLength(packetPulled)) - sum(packetLength(packetRemoved)) - sum(packetLength(packetDropped))))"
attr title "queue bit length"
attr unit b
vector 178 IoTCommunication.baseStation.eth[6].queue queueingTime:vector ETV
attr interpolationmode none
attr recordingmode vector
attr source queueingTime(packetPulled)
attr title "queueing times"
attr unit s
vector 179 IoTCommunication.baseStation.eth[6].queue incomingPacketLengths:vector ETV
attr interpolationmode none
attr recordingmode vector
attr source packetLength(packetPushStarted)
attr title "incoming packet lengths"
attr unit b
vector 180 IoTCommunication.baseStation.eth[6].queue incomingDataRate:vector ETV
attr interpolationmode linear
attr recordingmode vector
attr source throughput(packetPushStarted)
attr title "incoming datarate"
attr unit bps
vector 181 IoTCommunication.baseStation.eth[6].queue outgoingPacketLengths:vector ETV
attr interpolationmode none
attr recordingmode vector
attr source packetLength(packetPulled)
attr title "outgoing packet lengths"
attr unit b
vector 182 IoTCommunication.baseStation.eth[6].queue outgoingDataRate:vector ETV
attr interpolationmode linear
attr recordingmode vector
attr source throughput(packetPulled)
attr title "outgoing datarate"
attr unit bps
vector 183 IoTCommunication.baseStation.eth[6].queue droppedPacketLengthsQueueOverflow:vector ETV
attr interpolationmode none
attr recordingmode vector
attr source packetLength(packetDropReasonIsQueueOverflow(packetDropped))
attr title "dropped packet lengths: queue overflow"
attr unit b
vector 184 IoTCommunication.baseStation.eth[6].queue flowQueueingTime:vector ETV
attr interpolationmode none
attr recordingmode vector
attr source queueingTime(demuxFlow(packetPulled))
attr title "flow queueing times"
attr unit s
vector 185 IoTCommunication.baseStation.eth[6].queue flowIncomingDataRate:vector ETV
attr interpolationmode linear
attr recordingmode vector
attr source throughput(flowPacketLength(demuxFlow(packetPushStarted)))
attr title "flow specific incoming data rate"
attr unit bps
vector 186 IoTCommunication.baseStation.eth[6].queue flowOutgoingDataRate:vector ETV
attr interpolationmode linear
attr recordingmode vector
attr source throughput(flowPacketLength(demuxFlow(packetPulled)))
attr title "flow specific outgoing data rate"
attr unit bps
vector 187 IoTCommunication.baseStation.eth[6].mac txPk:vector(packetBytes) ETV
attr interpolationmode none
attr recordingmode vector(packetBytes)
attr source packetSentToLower
attr title "packets transmitted, packetBytes"
vector 188 IoTCommunication.baseStation.eth[6].mac rxPkOk:vector(packetBytes) ETV
attr interpolationmode none
attr recordingmode vector(packetBytes)
attr source rxPkOk
attr title "packets received OK, packetBytes"
vector 189 IoTCommunication.baseStation.eth[6].mac passedUpPk:vector(packetBytes) ETV
attr interpolationmode none
attr recordingmode vector(packetBytes)
attr source packetSentToUpper
attr title "packets passed to higher layer, packetBytes"
vector 190 IoTCommunication.baseStation.eth[6].mac txPausePkUnits:vector ETV
attr interpolationmode none
attr recordingmode vector
attr title "pause units sent"
vector 191 IoTCommunication.baseStation.eth[6].mac rxPausePkUnits:vector ETV
attr interpolationmode none
attr recordingmode vector
attr title "pause units received"
vector 192 IoTCommunication.baseStation.eth[6].mac packetReceivedFromUpper:vector(packetBytes) ETV
attr interpolationmode none
attr recordingmode vector(packetBytes)
attr source packetReceivedFromUpper
attr title "packet bytes from higher layer, packetBytes"
vector 193 IoTCommunication.baseStation.eth[6].mac packetDropIncorrectlyReceived:vector(packetBytes) ETV
attr interpolationmode none
attr recordingmode vector(packetBytes)
attr source packetDropReasonIsIncorrectlyReceived(packetDropped)
attr title "packet drop: incorrectly received, packetBytes"
vector 194 IoTCommunication.baseStation.eth[6].mac packetDropInterfaceDown:vector(packetBytes) ETV
attr interpolationmode none
attr recordingmode vector(packetBytes)
attr source packetDropReasonIsInterfaceDown(packetDropped)
attr title "packet drop: interface down, packetBytes"
vector 195 IoTCommunication.baseStation.eth[6].mac packetDropNotAddressedToUs:vector(packetBytes) ETV
attr interpolationmode none
attr recordingmode vector(packetBytes)
attr source packetDropReasonIsNotAddressedToUs(packetDropped)
attr title "packet drop: not addressed to us, packetBytes"
vector 196 IoTCommunication.baseStation.eth[6] packetDropInterfaceDown:vector(packetBytes) ETV
attr interpolationmode none
attr recordingmode vector(packetBytes)
attr source packetDropReasonIsInterfaceDown(packetDropped)
attr title "packet drops: interface down, packetBytes"
vector 197 IoTCommunication.baseStation.eth[6] packetDropNoCarrier:vector(packetBytes) ETV
attr interpolationmode none
attr recordingmode vector(packetBytes)
attr source packetDropReasonIsNoCarrier(packetDropped)
attr title "packet drops: no carrier, packetBytes"
vector 198 IoTCommunication.baseStation.eth[7].queue queueLength:vector ETV
attr autoWarmupFilter false
attr interpolationmode sample-hold
attr recordingmode vector
attr source "warmup(atomic(constant0(packetPushEnded) + count(packetPushStarted) - count(packetPulled) - count(packetRemoved) - count(packetDropped)))"
attr title "queue length"
attr unit pk
vector 199 IoTCommunication.baseStation.eth[7].queue queueBitLength:vector ETV
attr autoWarmupFilter false
attr interpolationmode sample-hold
attr recordingmode vector
attr source "warmup(atomic(constant0(packetPushEnded) + sum(packetLength(packetPushStarted)) - sum(packetLength(packetPulled)) - sum(packetLength(packetRemoved)) - sum(packetLength(packetDropped))))"
attr title "queue bit length"
attr unit b
vector 200 IoTCommunication.baseStation.eth[7].queue queueingTime:vector ETV
attr interpolationmode none
attr recordingmode vector
attr source queueingTime(packetPulled)
attr title "queueing times"
attr unit s
vector 201 IoTCommunication.baseStation.eth[7].queue incomingPacketLengths:vector ETV
attr interpolationmode none
attr recordingmode vector
attr source packetLength(packetPushStarted)
attr title "incoming packet lengths"
attr unit b
vector 202 IoTCommunication.baseStation.eth[7].queue incomingDataRate:vector ETV
attr interpolationmode linear
attr recordingmode vector
attr source throughput(packetPushStarted)
attr title "incoming datarate"
attr unit bps
vector 203 IoTCommunication.baseStation.eth[7].queue outgoingPacketLengths:vector ETV
attr interpolationmode none
attr recordingmode vector
attr source packetLength(packetPulled)
attr title "outgoing packet lengths"
attr unit b
vector 204 IoTCommunication.baseStation.eth[7].queue outgoingDataRate:vector ETV
attr interpolationmode linear
attr recordingmode vector
attr source throughput(packetPulled)
attr title "outgoing datarate"
attr unit bps
vector 205 IoTCommunication.baseStation.eth[7].queue droppedPacketLengthsQueueOverflow:vector ETV
attr interpolationmode none
attr recordingmode vector
attr source packetLength(packetDropReasonIsQueueOverflow(packetDropped))
attr title "dropped packet lengths: queue overflow"
attr unit b
vector 206 IoTCommunication.baseStation.eth[7].queue flowQueueingTime:vector ETV
attr interpolationmode none
attr recordingmode vector
attr source queueingTime(demuxFlow(packetPulled))
attr title "flow queueing times"
attr unit s
vector 207 IoTCommunication.baseStation.eth[7].queue flowIncomingDataRate:vector ETV
attr interpolationmode linear
attr recordingmode vector
attr source throughput(flowPacketLength(demuxFlow(packetPushStarted)))
attr title "flow specific incoming data rate"
attr unit bps
vector 208 IoTCommunication.baseStation.eth[7].queue flowOutgoingDataRate:vector ETV
attr interpolationmode linear
attr recordingmode vector
attr source throughput(flowPacketLength(demuxFlow(packetPulled)))
attr title "flow specific outgoing data rate"
attr unit bps
vector 209 IoTCommunication.baseStation.eth[7].mac txPk:vector(packetBytes) ETV
attr interpolationmode none
attr recordingmode vector(packetBytes)
attr source packetSentToLower
attr title "packets transmitted, packetBytes"
vector 210 IoTCommunication.baseStation.eth[7].mac rxPkOk:vector(packetBytes) ETV
attr interpolationmode none
attr recordingmode vector(packetBytes)
attr source rxPkOk
attr title "packets received OK, packetBytes"
vector 211 IoTCommunication.baseStation.eth[7].mac passedUpPk:vector(packetBytes) ETV
attr interpolationmode none
attr recordingmode vector(packetBytes)
attr source packetSentToUpper
attr title "packets passed to higher layer, packetBytes"
vector 212 IoTCommunication.baseStation.eth[7].mac txPausePkUnits:vector ETV
attr interpolationmode none
attr recordingmode vector
attr title "pause units sent"
vector 213 IoTCommunication.baseStation.eth[7].mac rxPausePkUnits:vector ETV
attr interpolationmode none
attr recordingmode vector
attr title "pause units received"
vector 214 IoTCommunication.baseStation.eth[7].mac packetReceivedFromUpper:vector(packetBytes) ETV
attr interpolationmode none
attr recordingmode vector(packetBytes)
attr source packetReceivedFromUpper
attr title "packet bytes from higher layer, packetBytes"
vector 215 IoTCommunication.baseStation.eth[7].mac packetDropIncorrectlyReceived:vector(packetBytes) ETV
attr interpolationmode none
attr recordingmode vector(packetBytes)
attr source packetDropReasonIsIncorrectlyReceived(packetDropped)
attr title "packet drop: incorrectly received, packetBytes"
vector 216 IoTCommunication.baseStation.eth[7].mac packetDropInterfaceDown:vector(packetBytes) ETV
attr interpolationmode none
attr recordingmode vector(packetBytes)
attr source packetDropReasonIsInterfaceDown(packetDropped)
attr title "packet drop: interface down, packetBytes"
vector 217 IoTCommunication.baseStation.eth[7].mac packetDropNotAddressedToUs:vector(packetBytes) ETV
attr interpolationmode none
attr recordingmode vector(packetBytes)
attr source packetDropReasonIsNotAddressedToUs(packetDropped)
attr title "packet drop: not addressed to us, packetBytes"
vector 218 IoTCommunication.baseStation.eth[7] packetDropInterfaceDown:vector(packetBytes) ETV
attr interpolationmode none
attr recordingmode vector(packetBytes)
attr source packetDropReasonIsInterfaceDown(packetDropped)
attr title "packet drops: interface down, packetBytes"
vector 219 IoTCommunication.baseStation.eth[7] packetDropNoCarrier:vector(packetBytes) ETV
attr interpolationmode none
attr recordingmode vector(packetBytes)
attr source packetDropReasonIsNoCarrier(packetDropped)
attr title "packet drops: no carrier, packetBytes"
vector 220 IoTCommunication.baseStation.eth[8].queue queueLength:vector ETV
attr autoWarmupFilter false
attr interpolationmode sample-hold
attr recordingmode vector
attr source "warmup(atomic(constant0(packetPushEnded) + count(packetPushStarted) - count(packetPulled) - count(packetRemoved) - count(packetDropped)))"
attr title "queue length"
attr unit pk
vector 221 IoTCommunication.baseStation.eth[8].queue queueBitLength:vector ETV
attr autoWarmupFilter false
attr interpolationmode sample-hold
attr recordingmode vector
attr source "warmup(atomic(constant0(packetPushEnded) + sum(packetLength(packetPushStarted)) - sum(packetLength(packetPulled)) - sum(packetLength(packetRemoved)) - sum(packetLength(packetDropped))))"
attr title "queue bit length"
attr unit b
vector 222 IoTCommunication.baseStation.eth[8].queue queueingTime:vector ETV
attr interpolationmode none
attr recordingmode vector
attr source queueingTime(packetPulled)
attr title "queueing times"
attr unit s
vector 223 IoTCommunication.baseStation.eth[8].queue incomingPacketLengths:vector ETV
attr interpolationmode none
attr recordingmode vector
attr source packetLength(packetPushStarted)
attr title "incoming packet lengths"
attr unit b
vector 224 IoTCommunication.baseStation.eth[8].queue incomingDataRate:vector ETV
attr interpolationmode linear
attr recordingmode vector
attr source throughput(packetPushStarted)
attr title "incoming datarate"
attr unit bps
vector 225 IoTCommunication.baseStation.eth[8].queue outgoingPacketLengths:vector ETV
attr interpolationmode none
attr recordingmode vector
attr source packetLength(packetPulled)
attr title "outgoing packet lengths"
attr unit b
vector 226 IoTCommunication.baseStation.eth[8].queue outgoingDataRate:vector ETV
attr interpolationmode linear
attr recordingmode vector
attr source throughput(packetPulled)
attr title "outgoing datarate"
attr unit bps
vector 227 IoTCommunication.baseStation.eth[8].queue droppedPacketLengthsQueueOverflow:vector ETV
attr interpolationmode none
attr recordingmode vector
attr source packetLength(packetDropReasonIsQueueOverflow(packetDropped))
attr title "dropped packet lengths: queue overflow"
attr unit b
vector 228 IoTCommunication.baseStation.eth[8].queue flowQueueingTime:vector ETV
attr interpolationmode none
attr recordingmode vector
attr source queueingTime(demuxFlow(packetPulled))
attr title "flow queueing times"
attr unit s
vector 229 IoTCommunication.baseStation.eth[8].queue flowIncomingDataRate:vector ETV
attr interpolationmode linear
attr recordingmode vector
attr source throughput(flowPacketLength(demuxFlow(packetPushStarted)))
attr title "flow specific incoming data rate"
attr unit bps
vector 230 IoTCommunication.baseStation.eth[8].queue flowOutgoingDataRate:vector ETV
attr interpolationmode linear
attr recordingmode vector
attr source throughput(flowPacketLength(demuxFlow(packetPulled)))
attr title "flow specific outgoing data rate"
attr unit bps
vector 231 IoTCommunication.baseStation.eth[8].mac txPk:vector(packetBytes) ETV
attr interpolationmode none
attr recordingmode vector(packetBytes)
attr source packetSentToLower
attr title "packets transmitted, packetBytes"
vector 232 IoTCommunication.baseStation.eth[8].mac rxPkOk:vector(packetBytes) ETV
attr interpolationmode none
attr recordingmode vector(packetBytes)
attr source rxPkOk
attr title "packets received OK, packetBytes"
vector 233 IoTCommunication.baseStation.eth[8].mac passedUpPk:vector(packetBytes) ETV
attr interpolationmode none
attr recordingmode vector(packetBytes)
attr source packetSentToUpper
attr title "packets passed to higher layer, packetBytes"
vector 234 IoTCommunication.baseStation.eth[8].mac txPausePkUnits:vector ETV
attr interpolationmode none
attr recordingmode vector
attr title "pause units sent"
vector 235 IoTCommunication.baseStation.eth[8].mac rxPausePkUnits:vector ETV
attr interpolationmode none
attr recordingmode vector
attr title "pause units received"
vector 236 IoTCommunication.baseStation.eth[8].mac packetReceivedFromUpper:vector(packetBytes) ETV
attr interpolationmode none
attr recordingmode vector(packetBytes)
attr source packetReceivedFromUpper
attr title "packet bytes from higher layer, packetBytes"
vector 237 IoTCommunication.baseStation.eth[8].mac packetDropIncorrectlyReceived:vector(packetBytes) ETV
attr interpolationmode none
attr recordingmode vector(packetBytes)
attr source packetDropReasonIsIncorrectlyReceived(packetDropped)
attr title "packet drop: incorrectly received, packetBytes"
vector 238 IoTCommunication.baseStation.eth[8].mac packetDropInterfaceDown:vector(packetBytes) ETV
attr interpolationmode none
attr recordingmode vector(packetBytes)
attr source packetDropReasonIsInterfaceDown(packetDropped)
attr title "packet drop: interface down, packetBytes"
vector 239 IoTCommunication.baseStation.eth[8].mac packetDropNotAddressedToUs:vector(packetBytes) ETV
attr interpolationmode none
attr recordingmode vector(packetBytes)
attr source packetDropReasonIsNotAddressedToUs(packetDropped)
attr title "packet drop: not addressed to us, packetBytes"
vector 240 IoTCommunication.baseStation.eth[8] packetDropInterfaceDown:vector(packetBytes) ETV
attr interpolationmode none
attr recordingmode vector(packetBytes)
attr source packetDropReasonIsInterfaceDown(packetDropped)
attr title "packet drops: interface down, packetBytes"
vector 241 IoTCommunication.baseStation.eth[8] packetDropNoCarrier:vector(packetBytes) ETV
attr interpolationmode none
attr recordingmode vector(packetBytes)
attr source packetDropReasonIsNoCarrier(packetDropped)
attr title "packet drops: no carrier, packetBytes"
vector 242 IoTCommunication.baseStation.eth[9].queue queueLength:vector ETV
attr autoWarmupFilter false
attr interpolationmode sample-hold
attr recordingmode vector
attr source "warmup(atomic(constant0(packetPushEnded) + count(packetPushStarted) - count(packetPulled) - count(packetRemoved) - count(packetDropped)))"
attr title "queue length"
attr unit pk
vector 243 IoTCommunication.baseStation.eth[9].queue queueBitLength:vector ETV
attr autoWarmupFilter false
attr interpolationmode sample-hold
attr recordingmode vector
attr source "warmup(atomic(constant0(packetPushEnded) + sum(packetLength(packetPushStarted)) - sum(packetLength(packetPulled)) - sum(packetLength(packetRemoved)) - sum(packetLength(packetDropped))))"
attr title "queue bit length"
attr unit b
vector 244 IoTCommunication.baseStation.eth[9].queue queueingTime:vector ETV
attr interpolationmode none
attr recordingmode vector
attr source queueingTime(packetPulled)
attr title "queueing times"
attr unit s
vector 245 IoTCommunication.baseStation.eth[9].queue incomingPacketLengths:vector ETV
attr interpolationmode none
attr recordingmode vector
attr source packetLength(packetPushStarted)
attr title "incoming packet lengths"
attr unit b
vector 246 IoTCommunication.baseStation.eth[9].queue incomingDataRate:vector ETV
attr interpolationmode linear
attr recordingmode vector
attr source throughput(packetPushStarted)
attr title "incoming datarate"
attr unit bps
vector 247 IoTCommunication.baseStation.eth[9].queue outgoingPacketLengths:vector ETV
attr interpolationmode none
attr recordingmode vector
attr source packetLength(packetPulled)
attr title "outgoing packet lengths"
attr unit b
vector 248 IoTCommunication.baseStation.eth[9].queue outgoingDataRate:vector ETV
attr interpolationmode linear
attr recordingmode vector
attr source throughput(packetPulled)
attr title "outgoing datarate"
attr unit bps
vector 249 IoTCommunication.baseStation.eth[9].queue droppedPacketLengthsQueueOverflow:vector ETV
attr interpolationmode none
attr recordingmode vector
attr source packetLength(packetDropReasonIsQueueOverflow(packetDropped))
attr title "dropped packet lengths: queue overflow"
attr unit b
vector 250 IoTCommunication.baseStation.eth[9].queue flowQueueingTime:vector ETV
attr interpolationmode none
attr recordingmode vector
attr source queueingTime(demuxFlow(packetPulled))
attr title "flow queueing times"
attr unit s
vector 251 IoTCommunication.baseStation.eth[9].queue flowIncomingDataRate:vector ETV
attr interpolationmode linear
attr recordingmode vector
attr source throughput(flowPacketLength(demuxFlow(packetPushStarted)))
attr title "flow specific incoming data rate"
attr unit bps
vector 252 IoTCommunication.baseStation.eth[9].queue flowOutgoingDataRate:vector ETV
attr interpolationmode linear
attr recordingmode vector
attr source throughput(flowPacketLength(demuxFlow(packetPulled)))
attr title "flow specific outgoing data rate"
attr unit bps
vector 253 IoTCommunication.baseStation.eth[9].mac txPk:vector(packetBytes) ETV
attr interpolationmode none
attr recordingmode vector(packetBytes)
attr source packetSentToLower
attr title "packets transmitted, packetBytes"
vector 254 IoTCommunication.baseStation.eth[9].mac rxPkOk:vector(packetBytes) ETV
attr interpolationmode none
attr recordingmode vector(packetBytes)
attr source rxPkOk
attr title "packets received OK, packetBytes"
vector 255 IoTCommunication.baseStation.eth[9].mac passedUpPk:vector(packetBytes) ETV
attr interpolationmode none
attr recordingmode vector(packetBytes)
attr source packetSentToUpper
attr title "packets passed to higher layer, packetBytes"
vector 256 IoTCommunication.baseStation.eth[9].mac txPausePkUnits:vector ETV
attr interpolationmode none
attr recordingmode vector
attr title "pause units sent"
vector 257 IoTCommunication.baseStation.eth[9].mac rxPausePkUnits:vector ETV
attr interpolationmode none
attr recordingmode vector
attr title "pause units received"
vector 258 IoTCommunication.baseStation.eth[9].mac packetReceivedFromUpper:vector(packetBytes) ETV
attr interpolationmode none
attr recordingmode vector(packetBytes)
attr source packetReceivedFromUpper
attr title "packet bytes from higher layer, packetBytes"
vector 259 IoTCommunication.baseStation.eth[9].mac packetDropIncorrectlyReceived:vector(packetBytes) ETV
attr interpolationmode none
attr recordingmode vector(packetBytes)
attr source packetDropReasonIsIncorrectlyReceived(packetDropped)
attr title "packet drop: incorrectly received, packetBytes"
vector 260 IoTCommunication.baseStation.eth[9].mac packetDropInterfaceDown:vector(packetBytes) ETV
attr interpolationmode none
attr recordingmode vector(packetBytes)
attr source packetDropReasonIsInterfaceDown(packetDropped)
attr title "packet drop: interface down, packetBytes"
vector 261 IoTCommunication.baseStation.eth[9].mac packetDropNotAddressedToUs:vector(packetBytes) ETV
attr interpolationmode none
attr recordingmode vector(packetBytes)
attr source packetDropReasonIsNotAddressedToUs(packetDropped)
attr title "packet drop: not addressed to us, packetBytes"
vector 262 IoTCommunication.baseStation.eth[9] packetDropInterfaceDown:vector(packetBytes) ETV
attr interpolationmode none
attr recordingmode vector(packetBytes)
attr source packetDropReasonIsInterfaceDown(packetDropped)
attr title "packet drops: interface down, packetBytes"
vector 263 IoTCommunication.baseStation.eth[9] packetDropNoCarrier:vector(packetBytes) ETV
attr interpolationmode none
attr recordingmode vector(packetBytes)
attr source packetDropReasonIsNoCarrier(packetDropped)
attr title "packet drops: no carrier, packetBytes"
vector 264 IoTCommunication.baseStation.eth[10].queue queueLength:vector ETV
attr autoWarmupFilter false
attr interpolationmode sample-hold
attr recordingmode vector
attr source "warmup(atomic(constant0(packetPushEnded) + count(packetPushStarted) - count(packetPulled) - count(packetRemoved) - count(packetDropped)))"
attr title "queue length"
attr unit pk
vector 265 IoTCommunication.baseStation.eth[10].queue queueBitLength:vector ETV
attr autoWarmupFilter false
attr interpolationmode sample-hold
attr recordingmode vector
attr source "warmup(atomic(constant0(packetPushEnded) + sum(packetLength(packetPushStarted)) - sum(packetLength(packetPulled)) - sum(packetLength(packetRemoved)) - sum(packetLength(packetDropped))))"
attr title "queue bit length"
attr unit b
vector 266 IoTCommunication.baseStation.eth[10].queue queueingTime:vector ETV
attr interpolationmode none
attr recordingmode vector
attr source queueingTime(packetPulled)
attr title "queueing times"
attr unit s
vector 267 IoTCommunication.baseStation.eth[10].queue incomingPacketLengths:vector ETV
attr interpolationmode none
attr recordingmode vector
attr source packetLength(packetPushStarted)
attr title "incoming packet lengths"
attr unit b
vector 268 IoTCommunication.baseStation.eth[10].queue incomingDataRate:vector ETV
attr interpolationmode linear
attr recordingmode vector
attr source throughput(packetPushStarted)
attr title "incoming datarate"
attr unit bps
vector 269 IoTCommunication.baseStation.eth[10].queue outgoingPacketLengths:vector ETV
attr interpolationmode none
attr recordingmode vector
attr source packetLength(packetPulled)
attr title "outgoing packet lengths"
attr unit b
vector 270 IoTCommunication.baseStation.eth[10].queue outgoingDataRate:vector ETV
attr interpolationmode linear
attr recordingmode vector
attr source throughput(packetPulled)
attr title "outgoing datarate"
attr unit bps
vector 271 IoTCommunication.baseStation.eth[10].queue droppedPacketLengthsQueueOverflow:vector ETV
attr interpolationmode none
attr recordingmode vector
attr source packetLength(packetDropReasonIsQueueOverflow(packetDropped))
attr title "dropped packet lengths: queue overflow"
attr unit b
vector 272 IoTCommunication.baseStation.eth[10].queue flowQueueingTime:vector ETV
attr interpolationmode none
attr recordingmode vector
attr source queueingTime(demuxFlow(packetPulled))
attr title "flow queueing times"
attr unit s
vector 273 IoTCommunication.baseStation.eth[10].queue flowIncomingDataRate:vector ETV
attr interpolationmode linear
attr recordingmode vector
attr source throughput(flowPacketLength(demuxFlow(packetPushStarted)))
attr title "flow specific incoming data rate"
attr unit bps
vector 274 IoTCommunication.baseStation.eth[10].queue flowOutgoingDataRate:vector ETV
attr interpolationmode linear
attr recordingmode vector
attr source throughput(flowPacketLength(demuxFlow(packetPulled)))
attr title "flow specific outgoing data rate"
attr unit bps
vector 275 IoTCommunication.baseStation.eth[10].mac txPk:vector(packetBytes) ETV
attr interpolationmode none
attr recordingmode vector(packetBytes)
attr source packetSentToLower
attr title "packets transmitted, packetBytes"
vector 276 IoTCommunication.baseStation.eth[10].mac rxPkOk:vector(packetBytes) ETV
attr interpolationmode none
attr recordingmode vector(packetBytes)
attr source rxPkOk
attr title "packets received OK, packetBytes"
vector 277 IoTCommunication.baseStation.eth[10].mac passedUpPk:vector(packetBytes) ETV
attr interpolationmode none
attr recordingmode vector(packetBytes)
attr source packetSentToUpper
attr title "packets passed to higher layer, packetBytes"
vector 278 IoTCommunication.baseStation.eth[10].mac txPausePkUnits:vector ETV
attr interpolationmode none
attr recordingmode vector
attr title "pause units sent"
vector 279 IoTCommunication.baseStation.eth[10].mac rxPausePkUnits:vector ETV
attr interpolationmode none
attr recordingmode vector
attr title "pause units received"
vector 280 IoTCommunication.baseStation.eth[10].mac packetReceivedFromUpper:vector(packetBytes) ETV
attr interpolationmode none
attr recordingmode vector(packetBytes)
attr source packetReceivedFromUpper
attr title "packet bytes from higher layer, packetBytes"
vector 281 IoTCommunication.baseStation.eth[10].mac packetDropIncorrectlyReceived:vector(packetBytes) ETV
attr interpolationmode none
attr recordingmode vector(packetBytes)
attr source packetDropReasonIsIncorrectlyReceived(packetDropped)
attr title "packet drop: incorrectly received, packetBytes"
vector 282 IoTCommunication.baseStation.eth[10].mac packetDropInterfaceDown:vector(packetBytes) ETV
attr interpolationmode none
attr recordingmode vector(packetBytes)
attr source packetDropReasonIsInterfaceDown(packetDropped)
attr title "packet drop: interface down, packetBytes"
vector 283 IoTCommunication.baseStation.eth[10].mac packetDropNotAddressedToUs:vector(packetBytes) ETV
attr interpolationmode none
attr recordingmode vector(packetBytes)
attr source packetDropReasonIsNotAddressedToUs(packetDropped)
attr title "packet drop: not addressed to us, packetBytes"
vector 284 IoTCommunication.baseStation.eth[10] packetDropInterfaceDown:vector(packetBytes) ETV
attr interpolationmode none
attr recordingmode vector(packetBytes)
attr source packetDropReasonIsInterfaceDown(packetDropped)
attr title "packet drops: interface down, packetBytes"
vector 285 IoTCommunication.baseStation.eth[10] packetDropNoCarrier:vector(packetBytes) ETV
attr interpolationmode none
attr recordingmode vector(packetBytes)
attr source packetDropReasonIsNoCarrier(packetDropped)
attr title "packet drops: no carrier, packetBytes"
vector 286 IoTCommunication.baseStation.ipv4.ip packetDropAddressResolutionFailed:vector(packetBytes) ETV
attr interpolationmode none
attr recordingmode vector(packetBytes)
attr source packetDropReasonIsAddressResolutionFailed(packetDropped)
attr title "packet drop: address resolution failed, packetBytes"
vector 287 IoTCommunication.baseStation.ipv4.ip packetDropHopLimitReached:vector(packetBytes) ETV
attr interpolationmode none
attr recordingmode vector(packetBytes)
attr source packetDropReasonIsHopLimitReached(packetDropped)
attr title "packet drop: hop limit reached, packetBytes"
vector 288 IoTCommunication.baseStation.ipv4.ip packetDropForwardingDisabled:vector(packetBytes) ETV
attr interpolationmode none
attr recordingmode vector(packetBytes)
attr source packetDropReasonIsForwardingDisabled(packetDropped)
attr title "packet drop: forwarding disabled, packetBytes"
vector 289 IoTCommunication.baseStation.ipv4.ip packetDropNoInterfaceFound:vector(packetBytes) ETV
attr interpolationmode none
attr recordingmode vector(packetBytes)
attr source packetDropReasonIsNoInterfaceFound(packetDropped)
attr title "packet drop: no interface found, packetBytes"
vector 290 IoTCommunication.baseStation.ipv4.ip packetDropNoRouteFound:vector(packetBytes) ETV
attr interpolationmode none
attr recordingmode vector(packetBytes)
attr source packetDropReasonIsNoRouteFound(packetDropped)
attr title "packet drop: no route found, packetBytes"
vector 291 IoTCommunication.baseStation.ipv4.ip packetDropUndefined:vector(packetBytes) ETV
attr interpolationmode none
attr recordingmode vector(packetBytes)
attr source packetDropReasonIsUndefined(packetDropped)
attr title "packet drop: undefined, packetBytes"
vector 292 IoTCommunication.baseStation.ipv4.arp arpRequestSent:vector(packetBytes) ETV
attr recordingmode vector(packetBytes)
attr source arpRequestSent
attr title "ARP request sent, packetBytes"
vector 293 IoTCommunication.baseStation.ipv4.arp arpReplySent:vector(packetBytes) ETV
attr recordingmode vector(packetBytes)
attr source arpReplySent
attr title "ARP replies sent, packetBytes"
vector 294 IoTCommunication.iotDevice[0].ethernet encapPk:vector(packetBytes) ETV
attr interpolationmode none
attr recordingmode vector(packetBytes)
attr source encapPk
attr title "packets encapsulated, packetBytes"
vector 295 IoTCommunication.iotDevice[0].ethernet decapPk:vector(packetBytes) ETV
attr interpolationmode none
attr recordingmode vector(packetBytes)
attr source decapPk
attr title "packets decapsulated, packetBytes"
vector 296 IoTCommunication.iotDevice[0].ethernet pauseSent:vector ETV
attr recordingmode vector
attr title "pause sent"
vector 297 IoTCommunication.iotDevice[0].lo[0].lo rcvdPkFromHl:vector(packetBytes) ETV
attr interpolationmode none
attr recordingmode vector(packetBytes)
attr source packetReceivedFromUpper
attr title "packets received from higher layer, packetBytes"
vector 298 IoTCommunication.iotDevice[0].lo[0].lo passedUpPk:vector(packetBytes) ETV
attr interpolationmode none
attr recordingmode vector(packetBytes)
attr source packetSentToUpper
attr title "packets passed to higher layer, packetBytes"
vector 299 IoTCommunication.iotDevice[0].lo[0] packetDropInterfaceDown:vector(packetBytes) ETV
attr interpolationmode none
attr recordingmode vector(packetBytes)
attr source packetDropReasonIsInterfaceDown(packetDropped)
attr title "packet drops: interface down, packetBytes"
vector 300 IoTCommunication.iotDevice[0].lo[0] packetDropNoCarrier:vector(packetBytes) ETV
attr interpolationmode none
attr recordingmode vector(packetBytes)
attr source packetDropReasonIsNoCarrier(packetDropped)
attr title "packet drops: no carrier, packetBytes"
vector 301 IoTCommunication.iotDevice[0].eth[0].queue queueLength:vector ETV
attr autoWarmupFilter false
attr interpolationmode sample-hold
attr recordingmode vector
attr source "warmup(atomic(constant0(packetPushEnded) + count(packetPushStarted) - count(packetPulled) - count(packetRemoved) - count(packetDropped)))"
attr title "queue length"
attr unit pk
vector 302 IoTCommunication.iotDevice[0].eth[0].queue queueBitLength:vector ETV
attr autoWarmupFilter false
attr interpolationmode sample-hold
attr recordingmode vector
[...]
66	233225 243 0 2501 0 18.967890242153 13 0 0 0 0
67	233468 243 0 2501 0 18.967890242153 13 0 0 0 0
68	233711 198 177 2501 0.592950376389 18.967890242153 8 0 0 0 0
69	233909 214 177 2501 0.592950376389 18.967890242153 8 368 592 4512 2588672
70	234123 2831 177 2575 0.1 20 200 0 9600 45120 302438400
71	236954 214 177 2501 0.592950376389 18.967890242153 8 368 592 4512 2588672
72	237168 2831 177 2575 0.1 20 200 0 9600 45120 302438400
77	239999 206 178 2502 0.592956136389 18.967896802153 8 64 74 582 42428
78	240205 213 173 2482 0.592950376389 18.967671362153 8 64 146 1086 153308
79	240418 213 173 2482 0.592950376389 18.967671362153 8 64 146 1086 153308
82	240631 206 177 2501 0.592950376389 18.967890242153 8 46 74 564 40448
88	240837 271 0 2536 0 19.321439205244 14 0 0 0 0
89	241108 271 0 2536 0 19.321439205244 14 0 0 0 0
90	241379 226 327 2536 0.715295124972 19.321439205244 9 0 0 0 0
91	241605 244 327 2536 0.715295124972 19.321439205244 9 368 592 5104 2939136
92	241849 2849 327 2575 0.1 20 200 0 9600 51040 337484800
93	244698 244 327 2536 0.715295124972 19.321439205244 9 368 592 5104 2939136
94	244942 2849 327 2575 0.1 20 200 0 9600 51040 337484800
99	247791 235 328 2537 0.715300884972 19.321445765244 9 64 74 656 47904
100	248026 252 323 2517 0.715295124972 19.321220325244 9 64 146 1232 174624
101	248278 252 323 2517 0.715295124972 19.321220325244 9 64 146 1232 174624
104	248530 244 327 2536 0.715295124972 19.321439205244 9 46 74 638 45924
110	248774 253 0 2256 0 17.425300789338 13 0 0 0 0
111	249027 253 0 2256 0 17.425300789338 13 0 0 0 0
112	249280 203 377 2256 0.84437150409 17.425300789338 8 0 0 0 0
113	249483 219 377 2256 0.84437150409 17.425300789338 8 368 592 4512 2588672
114	249702 3019 377 2575 0.1 20 200 0 9600 45120 302438400
115	252721 219 377 2256 0.84437150409 17.425300789338 8 368 592 4512 2588672
116	252940 3019 377 2575 0.1 20 200 0 9600 45120 302438400
121	255959 211 378 2257 0.84437726409 17.425307349338 8 64 74 582 42428
122	256170 218 373 2237 0.84437150409 17.425081909338 8 64 146 1086 153308
123	256388 218 373 2237 0.84437150409 17.425081909338 8 64 146 1086 153308
126	256606 211 377 2256 0.84437150409 17.425300789338 8 46 74 564 40448
132	256817 231 0 2291 0 17.520395095499 12 0 0 0 0
133	257048 231 0 2291 0 17.520395095499 12 0 0 0 0
134	257279 181 227 2291 0.602869130378 17.520395095499 7 0 0 0 0
135	257460 195 227 2291 0.602869130378 17.520395095499 7 368 592 3920 2238208
136	257655 3044 227 2575 0.1 20 200 0 9600 39200 267392000
137	260699 195 227 2291 0.602869130378 17.520395095499 7 368 592 3920 2238208
138	260894 3044 227 2575 0.1 20 200 0 9600 39200 267392000
143	263938 188 228 2292 0.602874890378 17.520401655499 7 64 74 508 36952
144	264126 194 223 2272 0.602869130378 17.520176215499 7 64 146 940 131992
145	264320 194 223 2272 0.602869130378 17.520176215499 7 64 146 940 131992
148	264514 188 227 2291 0.602869130378 17.520395095499 7 46 74 490 34972
154	264702 232 0 2431 0 18.561246273146 12 0 0 0 0
155	264934 232 0 2431 0 18.561246273146 12 0 0 0 0
156	265166 182 477 2431 0.858051379849 18.561246273146 7 0 0 0 0
157	265348 196 477 2431 0.858051379849 18.561246273146 7 368 592 3920 2238208
158	265544 3047 477 2575 0.1 20 200 0 9600 39200 267392000
159	268591 196 477 2431 0.858051379849 18.561246273146 7 368 592 3920 2238208
160	268787 3047 477 2575 0.1 20 200 0 9600 39200 267392000
165	271834 189 478 2432 0.858057139849 18.561252833146 7 64 74 508 36952
166	272023 195 473 2412 0.858051379849 18.561027393146 7 64 146 940 131992
167	272218 195 473 2412 0.858051379849 18.561027393146 7 64 146 940 131992
170	272413 189 477 2431 0.858051379849 18.561246273146 7 46 74 490 34972
176	272602 257 0 2221 0 17.066766014362 13 0 0 0 0
177	272859 257 0 2221 0 17.066766014362 13 0 0 0 0
178	273116 207 77 2221 0.544988937383 17.066766014362 8 0 0 0 0
179	273323 223 77 2221 0.544988937383 17.066766014362 8 368 592 4512 2588672
180	273546 3050 77 2575 0.1 20 200 0 9600 45120 302438400
181	276596 223 77 2221 0.544988937383 17.066766014362 8 368 592 4512 2588672
182	276819 3050 77 2575 0.1 20 200 0 9600 45120 302438400
187	279869 215 78 2222 0.544994697383 17.066772574362 8 64 74 582 42428
188	280084 221 73 2202 0.544988937383 17.066547134362 8 64 146 1086 153308
189	280305 221 73 2202 0.544988937383 17.066547134362 8 64 146 1086 153308
192	280526 215 77 2221 0.544988937383 17.066766014362 8 46 74 564 40448
198	280741 231 0 2361 0 17.718116675543 12 0 0 0 0
199	280972 231 0 2361 0 17.718116675543 12 0 0 0 0
200	281203 181 427 2361 0.847357497257 17.718116675543 7 0 0 0 0
201	281384 195 427 2361 0.847357497257 17.718116675543 7 368 592 3920 2238208
202	281579 3028 427 2575 0.1 20 200 0 9600 39200 267392000
203	284607 195 427 2361 0.847357497257 17.718116675543 7 368 592 3920 2238208
204	284802 3028 427 2575 0.1 20 200 0 9600 39200 267392000
209	287830 188 428 2362 0.847363257257 17.718123235543 7 64 74 508 36952
210	288018 194 423 2342 0.847357497257 17.717897795543 7 64 146 940 131992
211	288212 194 423 2342 0.847357497257 17.717897795543 7 64 146 940 131992
214	288406 188 427 2361 0.847357497257 17.718116675543 7 46 74 490 34972
220	288594 281 0 2396 0 18.208135214207 14 0 0 0 0
221	288875 281 0 2396 0 18.208135214207 14 0 0 0 0
222	289156 231 13 2396 0.423760556788 18.208135214207 9 0 0 0 0
223	289387 249 13 2396 0.423760556788 18.208135214207 9 368 592 5104 2939136
224	289636 3036 13 2575 0.1 20 200 0 9600 51040 337484800
225	292672 249 13 2396 0.423760556788 18.208135214207 9 368 592 5104 2939136
226	292921 3036 13 2575 0.1 20 200 0 9600 51040 337484800
231	295957 240 14 2397 0.423766316788 18.208141774207 9 64 74 656 47904
232	296197 247 9 2377 0.423760556788 18.207916334207 9 64 146 1232 174624
233	296444 247 9 2377 0.423760556788 18.207916334207 9 64 146 1232 174624
236	296691 240 13 2396 0.423760556788 18.208135214207 9 46 74 638 45924
242	296931 259 0 2466 0 18.710117913821 13 0 0 0 0
243	297190 259 0 2466 0 18.710117913821 13 0 0 0 0
244	297449 209 277 2466 0.623669456397 18.710117913821 8 0 0 0 0
245	297658 225 277 2466 0.623669456397 18.710117913821 8 368 592 4512 2588672
246	297883 3034 277 2575 0.1 20 200 0 9600 45120 302438400
247	300917 225 277 2466 0.623669456397 18.710117913821 8 368 592 4512 2588672
248	301142 3034 277 2575 0.1 20 200 0 9600 45120 302438400
253	304176 217 278 2467 0.623675216397 18.710124473821 8 64 74 582 42428
254	304393 224 273 2447 0.623669456397 18.709899033821 8 64 146 1086 153308
255	304617 224 273 2447 0.623669456397 18.709899033821 8 64 146 1086 153308
258	304841 217 277 2466 0.623669456397 18.710117913821 8 46 74 564 40448
264	305058 1841 0 2521 0 19.321220325244 74 0 0 0 0
265	306899 1841 0 2521 0 19.321220325244 74 0 0 0 0
266	308740 1791 27 2521 0.423978636788 19.321220325244 69 0 0 0 0
267	310531 1997 27 2521 0.423978636788 19.321220325244 69 368 1168 79792 92902656
268	312528 3233 27 2575 0.1 20 200 0 35040 797920 12104678400
269	315761 1997 27 2521 0.423978636788 19.321220325244 69 368 1168 79792 92902656
270	317758 3233 27 2575 0.1 20 200 0 35040 797920 12104678400
275	320991 1928 28 2522 0.423984396788 19.321232645244 69 64 146 9992 1453584
276	322919 1861 37 2532 0.424190156788 19.321439205244 69 64 74 5096 376464
277	324780 1861 37 2532 0.424190156788 19.321439205244 69 64 74 5096 376464
280	326641 1928 27 2521 0.423978636788 19.321220325244 69 46 146 9974 1451604
292	328569 25 25 25 0.423978636788 0.423978636788 1 28 28 28 784
293	328594 257 11 475 0.423760556788 0.858051379849 10 28 28 280 7840
294	328851 193 119 2128 0.548813502304 16.392165453173 7 28 128 796 99088
295	329044 187 131 2155 0.549025022304 16.392603213173 7 46 56 382 20932
301	329231 230 0 2129 0 16.392165453173 12 0 0 0 0
302	329461 230 0 2129 0 16.392165453173 12 0 0 0 0
303	329691 180 120 2129 0.548813502304 16.392165453173 7 0 0 0 0
304	329871 200 120 2129 0.548813502304 16.392165453173 7 368 1168 7376 8320768
305	330071 3032 120 2575 0.1 20 200 0 15360 73760 918041600
306	333103 200 120 2129 0.548813502304 16.392165453173 7 368 1168 7376 8320768
307	333303 3032 120 2575 0.1 20 200 0 15360 73760 918041600
312	336335 193 121 2130 0.548819262304 16.392177773173 7 64 146 940 131992
313	336528 187 130 2154 0.549025022304 16.392603213173 7 64 74 508 36952
314	336715 187 130 2154 0.549025022304 16.392603213173 7 64 74 508 36952
317	336902 193 120 2129 0.548813502304 16.392165453173 7 46 146 922 130012
329	337095 26 118 118 0.548813502304 0.548813502304 1 28 28 28 784
331	337121 167 117 2126 0.548813502304 16.392165453173 6 108 108 648 69984
333	337288 10 0 0 0 0 1 0 0 0 0
334	337298 10 0 0 0 0 1 0 0 0 0
335	337308 10 0 0 0 0 1 0 0 0 0
337	337318 3061 2575 2575 0.1 20 200 0 0 0 0
338	340379 167 115 2125 0.548813502304 16.392165453173 6 100 100 600 60000
341	340546 221 169 2478 0.592844616389 18.967559042153 8 28 128 924 115472
342	340767 214 181 2505 0.593056136389 18.967996802153 8 46 56 438 24068
348	340981 256 0 2479 0 18.967559042153 13 0 0 0 0
349	341237 256 0 2479 0 18.967559042153 13 0 0 0 0
350	341493 206 170 2479 0.592844616389 18.967559042153 8 0 0 0 0
351	341699 229 170 2479 0.592844616389 18.967559042153 8 368 1168 8544 9684992
352	341928 3038 170 2575 0.1 20 200 0 15360 85440 1054464000
353	344966 229 170 2479 0.592844616389 18.967559042153 8 368 1168 8544 9684992
354	345195 3038 170 2575 0.1 20 200 0 15360 85440 1054464000
359	348233 221 171 2480 0.592850376389 18.967571362153 8 64 146 1086 153308
360	348454 214 180 2504 0.593056136389 18.967996802153 8 64 74 582 42428
361	348668 214 180 2504 0.593056136389 18.967996802153 8 64 74 582 42428
364	348882 221 170 2479 0.592844616389 18.967559042153 8 46 146 1068 151328
376	349103 26 168 168 0.592844616389 0.592844616389 1 28 28 28 784
378	349129 195 167 2476 0.592844616389 18.967559042153 7 108 108 756 81648
380	349324 10 0 0 0 0 1 0 0 0 0
381	349334 10 0 0 0 0 1 0 0 0 0
382	349344 10 0 0 0 0 1 0 0 0 0
384	349354 3061 2575 2575 0.1 20 200 0 0 0 0
385	352415 195 165 2475 0.592844616389 18.967559042153 7 100 100 700 70000
388	352610 252 319 2513 0.715189364972 19.321108005244 9 28 128 1052 131856
389	352862 244 331 2540 0.715400884972 19.321545765244 9 46 56 494 27204
395	353106 285 0 2514 0 19.321108005244 14 0 0 0 0
396	353391 285 0 2514 0 19.321108005244 14 0 0 0 0
397	353676 235 320 2514 0.715189364972 19.321108005244 9 0 0 0 0
398	353911 261 320 2514 0.715189364972 19.321108005244 9 368 1168 9712 11049216
399	354172 3057 320 2575 0.1 20 200 0 15360 97120 1190886400
400	357229 261 320 2514 0.715189364972 19.321108005244 9 368 1168 9712 11049216
401	357490 3057 320 2575 0.1 20 200 0 15360 97120 1190886400
406	360547 252 321 2515 0.715195124972 19.321120325244 9 64 146 1232 174624
407	360799 244 330 2539 0.715400884972 19.321545765244 9 64 74 656 47904
408	361043 244 330 2539 0.715400884972 19.321545765244 9 64 74 656 47904
411	361287 252 320 2514 0.715189364972 19.321108005244 9 46 146 1214 172644
423	361539 26 318 318 0.715189364972 0.715189364972 1 28 28 28 784
425	361565 226 317 2511 0.715189364972 19.321108005244 8 108 108 864 93312
427	361791 10 0 0 0 0 1 0 0 0 0
428	361801 10 0 0 0 0 1 0 0 0 0
429	361811 10 0 0 0 0 1 0 0 0 0
431	361821 3061 2575 2575 0.1 20 200 0 0 0 0
432	364882 226 315 2510 0.715189364972 19.321108005244 8 100 100 800 80000
435	365108 218 369 2233 0.84426574409 17.424969589338 8 28 128 924 115472
436	365326 212 381 2260 0.84447726409 17.425407349338 8 46 56 438 24068
442	365538 253 0 2234 0 17.424969589338 13 0 0 0 0
443	365791 253 0 2234 0 17.424969589338 13 0 0 0 0
444	366044 203 370 2234 0.84426574409 17.424969589338 8 0 0 0 0
445	366247 226 370 2234 0.84426574409 17.424969589338 8 368 1168 8544 9684992
446	366473 3026 370 2575 0.1 20 200 0 15360 85440 1054464000
447	369499 226 370 2234 0.84426574409 17.424969589338 8 368 1168 8544 9684992
448	369725 3026 370 2575 0.1 20 200 0 15360 85440 1054464000
453	372751 218 371 2235 0.84427150409 17.424981909338 8 64 146 1086 153308
454	372969 211 380 2259 0.84447726409 17.425407349338 8 64 74 582 42428
455	373180 211 380 2259 0.84447726409 17.425407349338 8 64 74 582 42428
458	373391 218 370 2234 0.84426574409 17.424969589338 8 46 146 1068 151328
470	373609 25 368 368 0.84426574409 0.84426574409 1 28 28 28 784
472	373634 193 367 2231 0.84426574409 17.424969589338 7 108 108 756 81648
474	373827 10 0 0 0 0 1 0 0 0 0
475	373837 10 0 0 0 0 1 0 0 0 0
476	373847 10 0 0 0 0 1 0 0 0 0
478	373857 3061 2575 2575 0.1 20 200 0 0 0 0
479	376918 193 365 2230 0.84426574409 17.424969589338 7 100 100 700 70000
482	377111 194 219 2268 0.602763370378 17.520063895499 7 28 128 796 99088
483	377305 188 231 2295 0.602974890378 17.520501655499 7 46 56 382 20932
489	377493 231 0 2269 0 17.520063895499 12 0 0 0 0
490	377724 231 0 2269 0 17.520063895499 12 0 0 0 0
491	377955 181 220 2269 0.602763370378 17.520063895499 7 0 0 0 0
492	378136 201 220 2269 0.602763370378 17.520063895499 7 368 1168 7376 8320768
493	378337 3050 220 2575 0.1 20 200 0 15360 73760 918041600
494	381387 201 220 2269 0.602763370378 17.520063895499 7 368 1168 7376 8320768
495	381588 3050 220 2575 0.1 20 200 0 15360 73760 918041600
500	384638 194 221 2270 0.602769130378 17.520076215499 7 64 146 940 131992
501	384832 188 230 2294 0.602974890378 17.520501655499 7 64 74 508 36952
502	385020 188 230 2294 0.602974890378 17.520501655499 7 64 74 508 36952
505	385208 194 220 2269 0.602763370378 17.520063895499 7 46 146 922 130012
517	385402 26 218 218 0.602763370378 0.602763370378 1 28 28 28 784
519	385428 168 217 2266 0.602763370378 17.520063895499 6 108 108 648 69984
521	385596 10 0 0 0 0 1 0 0 0 0
522	385606 10 0 0 0 0 1 0 0 0 0
523	385616 10 0 0 0 0 1 0 0 0 0
525	385626 3061 2575 2575 0.1 20 200 0 0 0 0
526	388687 168 215 2265 0.602763370378 17.520063895499 6 100 100 600 60000
529	388855 195 469 2408 0.857945619849 18.560915073146 7 28 128 796 99088
530	389050 189 481 2435 0.858157139849 18.561352833146 7 46 56 382 20932
536	389239 232 0 2409 0 18.560915073146 12 0 0 0 0
537	389471 232 0 2409 0 18.560915073146 12 0 0 0 0
538	389703 182 470 2409 0.857945619849 18.560915073146 7 0 0 0 0
539	389885 202 470 2409 0.857945619849 18.560915073146 7 368 1168 7376 8320768
540	390087 3053 470 2575 0.1 20 200 0 15360 73760 918041600
541	393140 202 470 2409 0.857945619849 18.560915073146 7 368 1168 7376 8320768
542	393342 3053 470 2575 0.1 20 200 0 15360 73760 918041600
547	396395 195 471 2410 0.857951379849 18.560927393146 7 64 146 940 131992
548	396590 189 480 2434 0.858157139849 18.561352833146 7 64 74 508 36952
549	396779 189 480 2434 0.858157139849 18.561352833146 7 64 74 508 36952
552	396968 195 470 2409 0.857945619849 18.560915073146 7 46 146 922 130012
564	397163 26 468 468 0.857945619849 0.857945619849 1 28 28 28 784
566	397189 169 467 2406 0.857945619849 18.560915073146 6 108 108 648 69984
568	397358 10 0 0 0 0 1 0 0 0 0
569	397368 10 0 0 0 0 1 0 0 0 0
570	397378 10 0 0 0 0 1 0 0 0 0
572	397388 3061 2575 2575 0.1 20 200 0 0 0 0
573	400449 169 465 2405 0.857945619849 18.560915073146 6 100 100 600 60000
576	400618 221 69 2198 0.544883177383 17.066434814362 8 28 128 924 115472
577	400839 215 81 2225 0.545094697383 17.066872574362 8 46 56 438 24068
583	401054 256 0 2199 0 17.066434814362 13 0 0 0 0
584	401310 256 0 2199 0 17.066434814362 13 0 0 0 0
585	401566 206 70 2199 0.544883177383 17.066434814362 8 0 0 0 0
586	401772 229 70 2199 0.544883177383 17.066434814362 8 368 1168 8544 9684992
587	402001 3057 70 2575 0.1 20 200 0 15360 85440 1054464000
588	405058 229 70 2199 0.544883177383 17.066434814362 8 368 1168 8544 9684992
589	405287 3057 70 2575 0.1 20 200 0 15360 85440 1054464000
594	408344 221 71 2200 0.544888937383 17.066447134362 8 64 146 1086 153308
595	408565 215 80 2224 0.545094697383 17.066872574362 8 64 74 582 42428
596	408780 215 80 2224 0.545094697383 17.066872574362 8 64 74 582 42428
599	408995 221 70 2199 0.544883177383 17.066434814362 8 46 146 1068 151328
611	409216 25 68 68 0.544883177383 0.544883177383 1 28 28 28 784
613	409241 196 67 2196 0.544883177383 17.066434814362 7 108 108 756 81648
615	409437 10 0 0 0 0 1 0 0 0 0
616	409447 10 0 0 0 0 1 0 0 0 0
617	409457 10 0 0 0 0 1 0 0 0 0
619	409467 3061 2575 2575 0.1 20 200 0 0 0 0
620	412528 196 65 2195 0.544883177383 17.066434814362 7 100 100 700 70000
623	412724 194 419 2338 0.847251737257 17.717785475543 7 28 128 796 99088
624	412918 188 431 2365 0.847463257257 17.718223235543 7 46 56 382 20932
630	413106 231 0 2339 0 17.717785475543 12 0 0 0 0
631	413337 231 0 2339 0 17.717785475543 12 0 0 0 0
632	413568 181 420 2339 0.847251737257 17.717785475543 7 0 0 0 0
633	413749 201 420 2339 0.847251737257 17.717785475543 7 368 1168 7376 8320768
634	413950 3034 420 2575 0.1 20 200 0 15360 73760 918041600
635	416984 201 420 2339 0.847251737257 17.717785475543 7 368 1168 7376 8320768
636	417185 3034 420 2575 0.1 20 200 0 15360 73760 918041600
641	420219 194 421 2340 0.847257497257 17.717797795543 7 64 146 940 131992
642	420413 188 430 2364 0.847463257257 17.718223235543 7 64 74 508 36952
643	420601 188 430 2364 0.847463257257 17.718223235543 7 64 74 508 36952
646	420789 194 420 2339 0.847251737257 17.717785475543 7 46 146 922 130012
658	420983 26 418 418 0.847251737257 0.847251737257 1 28 28 28 784
660	421009 168 417 2336 0.847251737257 17.717785475543 6 108 108 648 69984
662	421177 10 0 0 0 0 1 0 0 0 0
663	421187 10 0 0 0 0 1 0 0 0 0
664	421197 10 0 0 0 0 1 0 0 0 0
666	421207 3061 2575 2575 0.1 20 200 0 0 0 0
667	424268 168 415 2335 0.847251737257 17.717785475543 6 100 100 600 60000
670	424436 247 5 2373 0.423654796788 18.207804014207 9 28 128 1052 131856
671	424683 240 17 2400 0.423866316788 18.208241774207 9 46 56 494 27204
677	424923 280 0 2374 0 18.207804014207 14 0 0 0 0
678	425203 280 0 2374 0 18.207804014207 14 0 0 0 0
679	425483 230 6 2374 0.423654796788 18.207804014207 9 0 0 0 0
680	425713 256 6 2374 0.423654796788 18.207804014207 9 368 1168 9712 11049216
681	425969 3040 6 2575 0.1 20 200 0 15360 97120 1190886400
682	429009 256 6 2374 0.423654796788 18.207804014207 9 368 1168 9712 11049216
683	429265 3040 6 2575 0.1 20 200 0 15360 97120 1190886400
688	432305 247 7 2375 0.423660556788 18.207816334207 9 64 146 1232 174624
689	432552 240 16 2399 0.423866316788 18.208241774207 9 64 74 656 47904
690	432792 240 16 2399 0.423866316788 18.208241774207 9 64 74 656 47904
693	433032 247 6 2374 0.423654796788 18.207804014207 9 46 146 1214 172644
705	433279 24 4 4 0.423654796788 0.423654796788 1 28 28 28 784
707	433303 222 3 2371 0.423654796788 18.207804014207 8 108 108 864 93312
709	433525 10 0 0 0 0 1 0 0 0 0
710	433535 10 0 0 0 0 1 0 0 0 0
711	433545 10 0 0 0 0 1 0 0 0 0
713	433555 3061 2575 2575 0.1 20 200 0 0 0 0
714	436616 222 1 2370 0.423654796788 18.207804014207 8 100 100 800 80000
717	436838 224 269 2443 0.623563696397 18.709786713821 8 28 128 924 115472
718	437062 217 281 2470 0.623775216397 18.710224473821 8 46 56 438 24068
724	437279 259 0 2444 0 18.709786713821 13 0 0 0 0
725	437538 259 0 2444 0 18.709786713821 13 0 0 0 0
726	437797 209 270 2444 0.623563696397 18.709786713821 8 0 0 0 0
727	438006 232 270 2444 0.623563696397 18.709786713821 8 368 1168 8544 9684992
728	438238 3041 270 2575 0.1 20 200 0 15360 85440 1054464000
729	441279 232 270 2444 0.623563696397 18.709786713821 8 368 1168 8544 9684992
730	441511 3041 270 2575 0.1 20 200 0 15360 85440 1054464000
735	444552 224 271 2445 0.623569456397 18.709799033821 8 64 146 1086 153308
736	444776 217 280 2469 0.623775216397 18.710224473821 8 64 74 582 42428
737	444993 217 280 2469 0.623775216397 18.710224473821 8 64 74 582 42428
740	445210 224 270 2444 0.623563696397 18.709786713821 8 46 146 1068 151328
752	445434 26 268 268 0.623563696397 0.623563696397 1 28 28 28 784
754	445460 198 267 2441 0.623563696397 18.709786713821 7 108 108 756 81648
756	445658 10 0 0 0 0 1 0 0 0 0
757	445668 10 0 0 0 0 1 0 0 0 0
758	445678 10 0 0 0 0 1 0 0 0 0
760	445688 3061 2575 2575 0.1 20 200 0 0 0 0
761	448749 198 265 2440 0.623563696397 18.709786713821 7 100 100 700 70000

