version 3
run General-0-20250109-17:27:01-10833
attr configname General
attr datetime 20250109-17:27:01
attr datetimef 20250109-172701
attr experiment General
attr inifile omnetpp.ini
attr iterationvars ""
attr iterationvarsd ""
attr iterationvarsf ""
attr measurement ""
attr network IoTCommunication
attr processid 10833
attr repetition 0
attr replication #0
attr resultdir results
attr runnumber 0
attr seedset 0
config image-path ../../inet4.5/images
config network IoTCommunication
config sim-time-limit 20s
config *.satellite.mobility.typename StationaryMobility
config *.satellite.mobility.initialX 600m
config *.satellite.mobility.initialY 100m
config *.satellite.mobility.initialZ 500km
config *.baseStation.mobility.typename StationaryMobility
config *.baseStation.mobility.initialX 600m
config *.baseStation.mobility.initialY 300m
config *.baseStation.mobility.initialZ 0m
config *.iotDevice[*].mobility.typename StationaryMobility
config *.iotDevice[0].mobility.initialX 200m
config *.iotDevice[0].mobility.initialY 500m
config *.iotDevice[0].mobility.initialZ 0m
config *.iotDevice[1].mobility.initialX 300m
config *.iotDevice[1].mobility.initialY 500m
config *.iotDevice[1].mobility.initialZ 0m
config *.iotDevice[2].mobility.initialX 400m
config *.iotDevice[2].mobility.initialY 500m
config *.iotDevice[2].mobility.initialZ 0m
config *.iotDevice[3].mobility.initialX 500m
config *.iotDevice[3].mobility.initialY 500m
config *.iotDevice[3].mobility.initialZ 0m
config *.iotDevice[4].mobility.initialX 600m
config *.iotDevice[4].mobility.initialY 500m
config *.iotDevice[4].mobility.initialZ 0m
config *.iotDevice[5].mobility.initialX 700m
config *.iotDevice[5].mobility.initialY 500m
config *.iotDevice[5].mobility.initialZ 0m
config *.iotDevice[6].mobility.initialX 800m
config *.iotDevice[6].mobility.initialY 500m
config *.iotDevice[6].mobility.initialZ 0m
config *.iotDevice[7].mobility.initialX 900m
config *.iotDevice[7].mobility.initialY 500m
config *.iotDevice[7].mobility.initialZ 0m
config *.iotDevice[8].mobility.initialX 1000m
config *.iotDevice[8].mobility.initialY 500m
config *.iotDevice[8].mobility.initialZ 0m
config *.iotDevice[9].mobility.initialX 1100m
config *.iotDevice[9].mobility.initialY 500m
config *.iotDevice[9].mobility.initialZ 0m
config *.iotDevice[*].numApps 1
config *.iotDevice[*].app[0].typename UdpBasicApp
config *.iotDevice[*].app[0].destAddresses "\"satellite\""
config *.iotDevice[*].app[0].destPort 12345
config *.iotDevice[*].app[0].startTime "uniform(0s, 1s)"
config *.iotDevice[*].app[0].stopTime 20s
config *.iotDevice[*].app[0].messageLength 100B
config *.iotDevice[*].app[0].sendInterval "uniform(1s, 5s)"
config *.configurator.autoassignAddresses true
config **.recordScalar false
config **.recordVector false
config *.iotDevice[*].app[*].packetSent true
config *.iotDevice[*].app[*].packetReceived true
config *.iotDevice[*].app[*].packetLoss true
config *.iotDevice[*].app[*].throughput true
config *.iotDevice[*].app[*].endToEndDelay:vector true
config *.iotDevice[*].app[*].throughput:vector true
config *.satellite.ethg[*].queueingTime true
config *.baseStation.ethg[*].queueingTime true
config **.app[*].recordScalar true
config **.app[*].recordVector true

vector 0 IoTCommunication.satellite.ethernet encapPk:vector(packetBytes) ETV
attr interpolationmode none
attr recordingmode vector(packetBytes)
attr source encapPk
attr title "packets encapsulated, packetBytes"
vector 1 IoTCommunication.satellite.ethernet decapPk:vector(packetBytes) ETV
attr interpolationmode none
attr recordingmode vector(packetBytes)
attr source decapPk
attr title "packets decapsulated, packetBytes"
vector 2 IoTCommunication.satellite.ethernet pauseSent:vector ETV
attr recordingmode vector
attr title "pause sent"
vector 3 IoTCommunication.satellite.lo[0].lo rcvdPkFromHl:vector(packetBytes) ETV
attr interpolationmode none
attr recordingmode vector(packetBytes)
attr source packetReceivedFromUpper
attr title "packets received from higher layer, packetBytes"
vector 4 IoTCommunication.satellite.lo[0].lo passedUpPk:vector(packetBytes) ETV
attr interpolationmode none
attr recordingmode vector(packetBytes)
attr source packetSentToUpper
attr title "packets passed to higher layer, packetBytes"
vector 5 IoTCommunication.satellite.lo[0] packetDropInterfaceDown:vector(packetBytes) ETV
attr interpolationmode none
attr recordingmode vector(packetBytes)
attr source packetDropReasonIsInterfaceDown(packetDropped)
attr title "packet drops: interface down, packetBytes"
vector 6 IoTCommunication.satellite.lo[0] packetDropNoCarrier:vector(packetBytes) ETV
attr interpolationmode none
attr recordingmode vector(packetBytes)
attr source packetDropReasonIsNoCarrier(packetDropped)
attr title "packet drops: no carrier, packetBytes"
vector 7 IoTCommunication.satellite.eth[0].queue queueLength:vector ETV
attr autoWarmupFilter false
attr interpolationmode sample-hold
attr recordingmode vector
attr source "warmup(atomic(constant0(packetPushEnded) + count(packetPushStarted) - count(packetPulled) - count(packetRemoved) - count(packetDropped)))"
attr title "queue length"
attr unit pk
vector 8 IoTCommunication.satellite.eth[0].queue queueBitLength:vector ETV
attr autoWarmupFilter false
attr interpolationmode sample-hold
attr recordingmode vector
attr source "warmup(atomic(constant0(packetPushEnded) + sum(packetLength(packetPushStarted)) - sum(packetLength(packetPulled)) - sum(packetLength(packetRemoved)) - sum(packetLength(packetDropped))))"
attr title "queue bit length"
attr unit b
vector 9 IoTCommunication.satellite.eth[0].queue queueingTime:vector ETV
attr interpolationmode none
attr recordingmode vector
attr source queueingTime(packetPulled)
attr title "queueing times"
attr unit s
vector 10 IoTCommunication.satellite.eth[0].queue incomingPacketLengths:vector ETV
attr interpolationmode none
attr recordingmode vector
attr source packetLength(packetPushStarted)
attr title "incoming packet lengths"
attr unit b
vector 11 IoTCommunication.satellite.eth[0].queue incomingDataRate:vector ETV
attr interpolationmode linear
attr recordingmode vector
attr source throughput(packetPushStarted)
attr title "incoming datarate"
attr unit bps
vector 12 IoTCommunication.satellite.eth[0].queue outgoingPacketLengths:vector ETV
attr interpolationmode none
attr recordingmode vector
attr source packetLength(packetPulled)
attr title "outgoing packet lengths"
attr unit b
vector 13 IoTCommunication.satellite.eth[0].queue outgoingDataRate:vector ETV
attr interpolationmode linear
attr recordingmode vector
attr source throughput(packetPulled)
attr title "outgoing datarate"
attr unit bps
vector 14 IoTCommunication.satellite.eth[0].queue droppedPacketLengthsQueueOverflow:vector ETV
attr interpolationmode none
attr recordingmode vector
attr source packetLength(packetDropReasonIsQueueOverflow(packetDropped))
attr title "dropped packet lengths: queue overflow"
attr unit b
vector 15 IoTCommunication.satellite.eth[0].queue flowQueueingTime:vector ETV
attr interpolationmode none
attr recordingmode vector
attr source queueingTime(demuxFlow(packetPulled))
attr title "flow queueing times"
attr unit s
vector 16 IoTCommunication.satellite.eth[0].queue flowIncomingDataRate:vector ETV
attr interpolationmode linear
attr recordingmode vector
attr source throughput(flowPacketLength(demuxFlow(packetPushStarted)))
attr title "flow specific incoming data rate"
attr unit bps
vector 17 IoTCommunication.satellite.eth[0].queue flowOutgoingDataRate:vector ETV
attr interpolationmode linear
attr recordingmode vector
attr source throughput(flowPacketLength(demuxFlow(packetPulled)))
attr title "flow specific outgoing data rate"
attr unit bps
vector 18 IoTCommunication.satellite.eth[0].mac txPk:vector(packetBytes) ETV
attr interpolationmode none
attr recordingmode vector(packetBytes)
attr source packetSentToLower
attr title "packets transmitted, packetBytes"
vector 19 IoTCommunication.satellite.eth[0].mac rxPkOk:vector(packetBytes) ETV
attr interpolationmode none
attr recordingmode vector(packetBytes)
attr source rxPkOk
attr title "packets received OK, packetBytes"
vector 20 IoTCommunication.satellite.eth[0].mac passedUpPk:vector(packetBytes) ETV
attr interpolationmode none
attr recordingmode vector(packetBytes)
attr source packetSentToUpper
attr title "packets passed to higher layer, packetBytes"
vector 21 IoTCommunication.satellite.eth[0].mac txPausePkUnits:vector ETV
attr interpolationmode none
attr recordingmode vector
attr title "pause units sent"
vector 22 IoTCommunication.satellite.eth[0].mac rxPausePkUnits:vector ETV
attr interpolationmode none
attr recordingmode vector
attr title "pause units received"
vector 23 IoTCommunication.satellite.eth[0].mac packetReceivedFromUpper:vector(packetBytes) ETV
attr interpolationmode none
attr recordingmode vector(packetBytes)
attr source packetReceivedFromUpper
attr title "packet bytes from higher layer, packetBytes"
vector 24 IoTCommunication.satellite.eth[0].mac packetDropIncorrectlyReceived:vector(packetBytes) ETV
attr interpolationmode none
attr recordingmode vector(packetBytes)
attr source packetDropReasonIsIncorrectlyReceived(packetDropped)
attr title "packet drop: incorrectly received, packetBytes"
vector 25 IoTCommunication.satellite.eth[0].mac packetDropInterfaceDown:vector(packetBytes) ETV
attr interpolationmode none
attr recordingmode vector(packetBytes)
attr source packetDropReasonIsInterfaceDown(packetDropped)
attr title "packet drop: interface down, packetBytes"
vector 26 IoTCommunication.satellite.eth[0].mac packetDropNotAddressedToUs:vector(packetBytes) ETV
attr interpolationmode none
attr recordingmode vector(packetBytes)
attr source packetDropReasonIsNotAddressedToUs(packetDropped)
attr title "packet drop: not addressed to us, packetBytes"
vector 27 IoTCommunication.satellite.eth[0] packetDropInterfaceDown:vector(packetBytes) ETV
attr interpolationmode none
attr recordingmode vector(packetBytes)
attr source packetDropReasonIsInterfaceDown(packetDropped)
attr title "packet drops: interface down, packetBytes"
vector 28 IoTCommunication.satellite.eth[0] packetDropNoCarrier:vector(packetBytes) ETV
attr interpolationmode none
attr recordingmode vector(packetBytes)
attr source packetDropReasonIsNoCarrier(packetDropped)
attr title "packet drops: no carrier, packetBytes"
vector 29 IoTCommunication.satellite.ipv4.ip packetDropAddressResolutionFailed:vector(packetBytes) ETV
attr interpolationmode none
attr recordingmode vector(packetBytes)
attr source packetDropReasonIsAddressResolutionFailed(packetDropped)
attr title "packet drop: address resolution failed, packetBytes"
vector 30 IoTCommunication.satellite.ipv4.ip packetDropHopLimitReached:vector(packetBytes) ETV
attr interpolationmode none
attr recordingmode vector(packetBytes)
attr source packetDropReasonIsHopLimitReached(packetDropped)
attr title "packet drop: hop limit reached, packetBytes"
vector 31 IoTCommunication.satellite.ipv4.ip packetDropForwardingDisabled:vector(packetBytes) ETV
attr interpolationmode none
attr recordingmode vector(packetBytes)
attr source packetDropReasonIsForwardingDisabled(packetDropped)
attr title "packet drop: forwarding disabled, packetBytes"
vector 32 IoTCommunication.satellite.ipv4.ip packetDropNoInterfaceFound:vector(packetBytes) ETV
attr interpolationmode none
attr recordingmode vector(packetBytes)
attr source packetDropReasonIsNoInterfaceFound(packetDropped)
attr title "packet drop: no interface found, packetBytes"
vector 33 IoTCommunication.satellite.ipv4.ip packetDropNoRouteFound:vector(packetBytes) ETV
attr interpolationmode none
attr recordingmode vector(packetBytes)
attr source packetDropReasonIsNoRouteFound(packetDropped)
attr title "packet drop: no route found, packetBytes"
vector 34 IoTCommunication.satellite.ipv4.ip packetDropUndefined:vector(packetBytes) ETV
attr interpolationmode none
attr recordingmode vector(packetBytes)
attr source packetDropReasonIsUndefined(packetDropped)
attr title "packet drop: undefined, packetBytes"
vector 35 IoTCommunication.satellite.ipv4.arp arpRequestSent:vector(packetBytes) ETV
attr recordingmode vector(packetBytes)
attr source arpRequestSent
attr title "ARP request sent, packetBytes"
vector 36 IoTCommunication.satellite.ipv4.arp arpReplySent:vector(packetBytes) ETV
attr recordingmode vector(packetBytes)
attr source arpReplySent
attr title "ARP replies sent, packetBytes"
vector 37 IoTCommunication.baseStation.ethernet encapPk:vector(packetBytes) ETV
attr interpolationmode none
attr recordingmode vector(packetBytes)
attr source encapPk
attr title "packets encapsulated, packetBytes"
vector 38 IoTCommunication.baseStation.ethernet decapPk:vector(packetBytes) ETV
attr interpolationmode none
attr recordingmode vector(packetBytes)
attr source decapPk
attr title "packets decapsulated, packetBytes"
vector 39 IoTCommunication.baseStation.ethernet pauseSent:vector ETV
attr recordingmode vector
attr title "pause sent"
vector 40 IoTCommunication.baseStation.lo[0].lo rcvdPkFromHl:vector(packetBytes) ETV
attr interpolationmode none
attr recordingmode vector(packetBytes)
attr source packetReceivedFromUpper
attr title "packets received from higher layer, packetBytes"
vector 41 IoTCommunication.baseStation.lo[0].lo passedUpPk:vector(packetBytes) ETV
attr interpolationmode none
attr recordingmode vector(packetBytes)
attr source packetSentToUpper
attr title "packets passed to higher layer, packetBytes"
vector 42 IoTCommunication.baseStation.lo[0] packetDropInterfaceDown:vector(packetBytes) ETV
attr interpolationmode none
attr recordingmode vector(packetBytes)
attr source packetDropReasonIsInterfaceDown(packetDropped)
attr title "packet drops: interface down, packetBytes"
vector 43 IoTCommunication.baseStation.lo[0] packetDropNoCarrier:vector(packetBytes) ETV
attr interpolationmode none
attr recordingmode vector(packetBytes)
attr source packetDropReasonIsNoCarrier(packetDropped)
attr title "packet drops: no carrier, packetBytes"
vector 44 IoTCommunication.baseStation.eth[0].queue queueLength:vector ETV
attr autoWarmupFilter false
attr interpolationmode sample-hold
attr recordingmode vector
attr source "warmup(atomic(constant0(packetPushEnded) + count(packetPushStarted) - count(packetPulled) - count(packetRemoved) - count(packetDropped)))"
attr title "queue length"
attr unit pk
vector 45 IoTCommunication.baseStation.eth[0].queue queueBitLength:vector ETV
attr autoWarmupFilter false
attr interpolationmode sample-hold
attr recordingmode vector
attr source "warmup(atomic(constant0(packetPushEnded) + sum(packetLength(packetPushStarted)) - sum(packetLength(packetPulled)) - sum(packetLength(packetRemoved)) - sum(packetLength(packetDropped))))"
attr title "queue bit length"
attr unit b
vector 46 IoTCommunication.baseStation.eth[0].queue queueingTime:vector ETV
attr interpolationmode none
attr recordingmode vector
attr source queueingTime(packetPulled)
attr title "queueing times"
attr unit s
vector 47 IoTCommunication.baseStation.eth[0].queue incomingPacketLengths:vector ETV
attr interpolationmode none
attr recordingmode vector
attr source packetLength(packetPushStarted)
attr title "incoming packet lengths"
attr unit b
vector 48 IoTCommunication.baseStation.eth[0].queue incomingDataRate:vector ETV
attr interpolationmode linear
attr recordingmode vector
attr source throughput(packetPushStarted)
attr title "incoming datarate"
attr unit bps
vector 49 IoTCommunication.baseStation.eth[0].queue outgoingPacketLengths:vector ETV
attr interpolationmode none
attr recordingmode vector
attr source packetLength(packetPulled)
attr title "outgoing packet lengths"
attr unit b
vector 50 IoTCommunication.baseStation.eth[0].queue outgoingDataRate:vector ETV
attr interpolationmode linear
attr recordingmode vector
attr source throughput(packetPulled)
attr title "outgoing datarate"
attr unit bps
vector 51 IoTCommunication.baseStation.eth[0].queue droppedPacketLengthsQueueOverflow:vector ETV
attr interpolationmode none
attr recordingmode vector
attr source packetLength(packetDropReasonIsQueueOverflow(packetDropped))
attr title "dropped packet lengths: queue overflow"
attr unit b
vector 52 IoTCommunication.baseStation.eth[0].queue flowQueueingTime:vector ETV
attr interpolationmode none
attr recordingmode vector
attr source queueingTime(demuxFlow(packetPulled))
attr title "flow queueing times"
attr unit s
vector 53 IoTCommunication.baseStation.eth[0].queue flowIncomingDataRate:vector ETV
attr interpolationmode linear
attr recordingmode vector
attr source throughput(flowPacketLength(demuxFlow(packetPushStarted)))
attr title "flow specific incoming data rate"
attr unit bps
vector 54 IoTCommunication.baseStation.eth[0].queue flowOutgoingDataRate:vector ETV
attr interpolationmode linear
attr recordingmode vector
attr source throughput(flowPacketLength(demuxFlow(packetPulled)))
attr title "flow specific outgoing data rate"
attr unit bps
vector 55 IoTCommunication.baseStation.eth[0].mac txPk:vector(packetBytes) ETV
attr interpolationmode none
attr recordingmode vector(packetBytes)
attr source packetSentToLower
attr title "packets transmitted, packetBytes"
vector 56 IoTCommunication.baseStation.eth[0].mac rxPkOk:vector(packetBytes) ETV
attr interpolationmode none
attr recordingmode vector(packetBytes)
attr source rxPkOk
attr title "packets received OK, packetBytes"
vector 57 IoTCommunication.baseStation.eth[0].mac passedUpPk:vector(packetBytes) ETV
attr interpolationmode none
attr recordingmode vector(packetBytes)
attr source packetSentToUpper
attr title "packets passed to higher layer, packetBytes"
vector 58 IoTCommunication.baseStation.eth[0].mac txPausePkUnits:vector ETV
attr interpolationmode none
attr recordingmode vector
attr title "pause units sent"
vector 59 IoTCommunication.baseStation.eth[0].mac rxPausePkUnits:vector ETV
attr interpolationmode none
attr recordingmode vector
attr title "pause units received"
vector 60 IoTCommunication.baseStation.eth[0].mac packetReceivedFromUpper:vector(packetBytes) ETV
attr interpolationmode none
attr recordingmode vector(packetBytes)
attr source packetReceivedFromUpper
attr title "packet bytes from higher layer, packetBytes"
vector 61 IoTCommunication.baseStation.eth[0].mac packetDropIncorrectlyReceived:vector(packetBytes) ETV
attr interpolationmode none
attr recordingmode vector(packetBytes)
attr source packetDropReasonIsIncorrectlyReceived(packetDropped)
attr title "packet drop: incorrectly received, packetBytes"
vector 62 IoTCommunication.baseStation.eth[0].mac packetDropInterfaceDown:vector(packetBytes) ETV
attr interpolationmode none
attr recordingmode vector(packetBytes)
attr source packetDropReasonIsInterfaceDown(packetDropped)
attr title "packet drop: interface down, packetBytes"
vector 63 IoTCommunication.baseStation.eth[0].mac packetDropNotAddressedToUs:vector(packetBytes) ETV
attr interpolationmode none
attr recordingmode vector(packetBytes)
attr source packetDropReasonIsNotAddressedToUs(packetDropped)
attr title "packet drop: not addressed to us, packetBytes"
vector 64 IoTCommunication.baseStation.eth[0] packetDropInterfaceDown:vector(packetBytes) ETV
attr interpolationmode none
attr recordingmode vector(packetBytes)
attr source packetDropReasonIsInterfaceDown(packetDropped)
attr title "packet drops: interface down, packetBytes"
vector 65 IoTCommunication.baseStation.eth[0] packetDropNoCarrier:vector(packetBytes) ETV
attr interpolationmode none
attr recordingmode vector(packetBytes)
attr source packetDropReasonIsNoCarrier(packetDropped)
attr title "packet drops: no carrier, packetBytes"
vector 66 IoTCommunication.baseStation.eth[1].queue queueLength:vector ETV
attr autoWarmupFilter false
attr interpolationmode sample-hold
attr recordingmode vector
attr source "warmup(atomic(constant0(packetPushEnded) + count(packetPushStarted) - count(packetPulled) - count(packetRemoved) - count(packetDropped)))"
attr title "queue length"
attr unit pk
vector 67 IoTCommunication.baseStation.eth[1].queue queueBitLength:vector ETV
attr autoWarmupFilter false
attr interpolationmode sample-hold
attr recordingmode vector
attr source "warmup(atomic(constant0(packetPushEnded) + sum(packetLength(packetPushStarted)) - sum(packetLength(packetPulled)) - sum(packetLength(packetRemoved)) - sum(packetLength(packetDropped))))"
attr title "queue bit length"
attr unit b
vector 68 IoTCommunication.baseStation.eth[1].queue queueingTime:vector ETV
attr interpolationmode none
attr recordingmode vector
attr source queueingTime(packetPulled)
attr title "queueing times"
attr unit s
vector 69 IoTCommunication.baseStation.eth[1].queue incomingPacketLengths:vector ETV
attr interpolationmode none
attr recordingmode vector
attr source packetLength(packetPushStarted)
attr title "incoming packet lengths"
attr unit b
vector 70 IoTCommunication.baseStation.eth[1].queue incomingDataRate:vector ETV
attr interpolationmode linear
attr recordingmode vector
attr source throughput(packetPushStarted)
attr title "incoming datarate"
attr unit bps
vector 71 IoTCommunication.baseStation.eth[1].queue outgoingPacketLengths:vector ETV
attr interpolationmode none
attr recordingmode vector
attr source packetLength(packetPulled)
attr title "outgoing packet lengths"
attr unit b
vector 72 IoTCommunication.baseStation.eth[1].queue outgoingDataRate:vector ETV
attr interpolationmode linear
attr recordingmode vector
attr source throughput(packetPulled)
attr title "outgoing datarate"
attr unit bps
vector 73 IoTCommunication.baseStation.eth[1].queue droppedPacketLengthsQueueOverflow:vector ETV
attr interpolationmode none
attr recordingmode vector
attr source packetLength(packetDropReasonIsQueueOverflow(packetDropped))
attr title "dropped packet lengths: queue overflow"
attr unit b
vector 74 IoTCommunication.baseStation.eth[1].queue flowQueueingTime:vector ETV
attr interpolationmode none
attr recordingmode vector
attr source queueingTime(demuxFlow(packetPulled))
attr title "flow queueing times"
attr unit s
vector 75 IoTCommunication.baseStation.eth[1].queue flowIncomingDataRate:vector ETV
attr interpolationmode linear
attr recordingmode vector
attr source throughput(flowPacketLength(demuxFlow(packetPushStarted)))
attr title "flow specific incoming data rate"
attr unit bps
vector 76 IoTCommunication.baseStation.eth[1].queue flowOutgoingDataRate:vector ETV
attr interpolationmode linear
attr recordingmode vector
attr source throughput(flowPacketLength(demuxFlow(packetPulled)))
attr title "flow specific outgoing data rate"
attr unit bps
vector 77 IoTCommunication.baseStation.eth[1].mac txPk:vector(packetBytes) ETV
attr interpolationmode none
attr recordingmode vector(packetBytes)
attr source packetSentToLower
attr title "packets transmitted, packetBytes"
vector 78 IoTCommunication.baseStation.eth[1].mac rxPkOk:vector(packetBytes) ETV
attr interpolationmode none
attr recordingmode vector(packetBytes)
attr source rxPkOk
attr title "packets received OK, packetBytes"
vector 79 IoTCommunication.baseStation.eth[1].mac passedUpPk:vector(packetBytes) ETV
attr interpolationmode none
attr recordingmode vector(packetBytes)
attr source packetSentToUpper
attr title "packets passed to higher layer, packetBytes"
vector 80 IoTCommunication.baseStation.eth[1].mac txPausePkUnits:vector ETV
attr interpolationmode none
attr recordingmode vector
attr title "pause units sent"
vector 81 IoTCommunication.baseStation.eth[1].mac rxPausePkUnits:vector ETV
attr interpolationmode none
attr recordingmode vector
attr title "pause units received"
vector 82 IoTCommunication.baseStation.eth[1].mac packetReceivedFromUpper:vector(packetBytes) ETV
attr interpolationmode none
attr recordingmode vector(packetBytes)
attr source packetReceivedFromUpper
attr title "packet bytes from higher layer, packetBytes"
vector 83 IoTCommunication.baseStation.eth[1].mac packetDropIncorrectlyReceived:vector(packetBytes) ETV
attr interpolationmode none
attr recordingmode vector(packetBytes)
attr source packetDropReasonIsIncorrectlyReceived(packetDropped)
attr title "packet drop: incorrectly received, packetBytes"
vector 84 IoTCommunication.baseStation.eth[1].mac packetDropInterfaceDown:vector(packetBytes) ETV
attr interpolationmode none
attr recordingmode vector(packetBytes)
attr source packetDropReasonIsInterfaceDown(packetDropped)
attr title "packet drop: interface down, packetBytes"
vector 85 IoTCommunication.baseStation.eth[1].mac packetDropNotAddressedToUs:vector(packetBytes) ETV
attr interpolationmode none
attr recordingmode vector(packetBytes)
attr source packetDropReasonIsNotAddressedToUs(packetDropped)
attr title "packet drop: not addressed to us, packetBytes"
vector 86 IoTCommunication.baseStation.eth[1] packetDropInterfaceDown:vector(packetBytes) ETV
attr interpolationmode none
attr recordingmode vector(packetBytes)
attr source packetDropReasonIsInterfaceDown(packetDropped)
attr title "packet drops: interface down, packetBytes"
vector 87 IoTCommunication.baseStation.eth[1] packetDropNoCarrier:vector(packetBytes) ETV
attr interpolationmode none
attr recordingmode vector(packetBytes)
attr source packetDropReasonIsNoCarrier(packetDropped)
attr title "packet drops: no carrier, packetBytes"
vector 88 IoTCommunication.baseStation.eth[2].queue queueLength:vector ETV
attr autoWarmupFilter false
attr interpolationmode sample-hold
attr recordingmode vector
attr source "warmup(atomic(constant0(packetPushEnded) + count(packetPushStarted) - count(packetPulled) - count(packetRemoved) - count(packetDropped)))"
attr title "queue length"
attr unit pk
vector 89 IoTCommunication.baseStation.eth[2].queue queueBitLength:vector ETV
attr autoWarmupFilter false
attr interpolationmode sample-hold
attr recordingmode vector
attr source "warmup(atomic(constant0(packetPushEnded) + sum(packetLength(packetPushStarted)) - sum(packetLength(packetPulled)) - sum(packetLength(packetRemoved)) - sum(packetLength(packetDropped))))"
attr title "queue bit length"
attr unit b
vector 90 IoTCommunication.baseStation.eth[2].queue queueingTime:vector ETV
attr interpolationmode none
attr recordingmode vector
attr source queueingTime(packetPulled)
attr title "queueing times"
attr unit s
vector 91 IoTCommunication.baseStation.eth[2].queue incomingPacketLengths:vector ETV
attr interpolationmode none
attr recordingmode vector
attr source packetLength(packetPushStarted)
attr title "incoming packet lengths"
attr unit b
vector 92 IoTCommunication.baseStation.eth[2].queue incomingDataRate:vector ETV
attr interpolationmode linear
attr recordingmode vector
attr source throughput(packetPushStarted)
attr title "incoming datarate"
attr unit bps
vector 93 IoTCommunication.baseStation.eth[2].queue outgoingPacketLengths:vector ETV
attr interpolationmode none
attr recordingmode vector
attr source packetLength(packetPulled)
attr title "outgoing packet lengths"
attr unit b
vector 94 IoTCommunication.baseStation.eth[2].queue outgoingDataRate:vector ETV
attr interpolationmode linear
attr recordingmode vector
attr source throughput(packetPulled)
attr title "outgoing datarate"
attr unit bps
vector 95 IoTCommunication.baseStation.eth[2].queue droppedPacketLengthsQueueOverflow:vector ETV
attr interpolationmode none
attr recordingmode vector
attr source packetLength(packetDropReasonIsQueueOverflow(packetDropped))
attr title "dropped packet lengths: queue overflow"
attr unit b
vector 96 IoTCommunication.baseStation.eth[2].queue flowQueueingTime:vector ETV
attr interpolationmode none
attr recordingmode vector
attr source queueingTime(demuxFlow(packetPulled))
attr title "flow queueing times"
attr unit s
vector 97 IoTCommunication.baseStation.eth[2].queue flowIncomingDataRate:vector ETV
attr interpolationmode linear
attr recordingmode vector
attr source throughput(flowPacketLength(demuxFlow(packetPushStarted)))
attr title "flow specific incoming data rate"
attr unit bps
vector 98 IoTCommunication.baseStation.eth[2].queue flowOutgoingDataRate:vector ETV
attr interpolationmode linear
attr recordingmode vector
attr source throughput(flowPacketLength(demuxFlow(packetPulled)))
attr title "flow specific outgoing data rate"
attr unit bps
vector 99 IoTCommunication.baseStation.eth[2].mac txPk:vector(packetBytes) ETV
attr interpolationmode none
attr recordingmode vector(packetBytes)
attr source packetSentToLower
attr title "packets transmitted, packetBytes"
vector 100 IoTCommunication.baseStation.eth[2].mac rxPkOk:vector(packetBytes) ETV
attr interpolationmode none
attr recordingmode vector(packetBytes)
attr source rxPkOk
attr title "packets received OK, packetBytes"
vector 101 IoTCommunication.baseStation.eth[2].mac passedUpPk:vector(packetBytes) ETV
attr interpolationmode none
attr recordingmode vector(packetBytes)
attr source packetSentToUpper
attr title "packets passed to higher layer, packetBytes"
vector 102 IoTCommunication.baseStation.eth[2].mac txPausePkUnits:vector ETV
attr interpolationmode none
attr recordingmode vector
attr title "pause units sent"
vector 103 IoTCommunication.baseStation.eth[2].mac rxPausePkUnits:vector ETV
attr interpolationmode none
attr recordingmode vector
attr title "pause units received"
vector 104 IoTCommunication.baseStation.eth[2].mac packetReceivedFromUpper:vector(packetBytes) ETV
attr interpolationmode none
attr recordingmode vector(packetBytes)
attr source packetReceivedFromUpper
attr title "packet bytes from higher layer, packetBytes"
vector 105 IoTCommunication.baseStation.eth[2].mac packetDropIncorrectlyReceived:vector(packetBytes) ETV
attr interpolationmode none
attr recordingmode vector(packetBytes)
attr source packetDropReasonIsIncorrectlyReceived(packetDropped)
attr title "packet drop: incorrectly received, packetBytes"
vector 106 IoTCommunication.baseStation.eth[2].mac packetDropInterfaceDown:vector(packetBytes) ETV
attr interpolationmode none
attr recordingmode vector(packetBytes)
attr source packetDropReasonIsInterfaceDown(packetDropped)
attr title "packet drop: interface down, packetBytes"
vector 107 IoTCommunication.baseStation.eth[2].mac packetDropNotAddressedToUs:vector(packetBytes) ETV
attr interpolationmode none
attr recordingmode vector(packetBytes)
attr source packetDropReasonIsNotAddressedToUs(packetDropped)
attr title "packet drop: not addressed to us, packetBytes"
vector 108 IoTCommunication.baseStation.eth[2] packetDropInterfaceDown:vector(packetBytes) ETV
attr interpolationmode none
attr recordingmode vector(packetBytes)
attr source packetDropReasonIsInterfaceDown(packetDropped)
attr title "packet drops: interface down, packetBytes"
vector 109 IoTCommunication.baseStation.eth[2] packetDropNoCarrier:vector(packetBytes) ETV
attr interpolationmode none
attr recordingmode vector(packetBytes)
attr source packetDropReasonIsNoCarrier(packetDropped)
attr title "packet drops: no carrier, packetBytes"
vector 110 IoTCommunication.baseStation.eth[3].queue queueLength:vector ETV
attr autoWarmupFilter false
attr interpolationmode sample-hold
attr recordingmode vector
attr source "warmup(atomic(constant0(packetPushEnded) + count(packetPushStarted) - count(packetPulled) - count(packetRemoved) - count(packetDropped)))"
attr title "queue length"
attr unit pk
vector 111 IoTCommunication.baseStation.eth[3].queue queueBitLength:vector ETV
attr autoWarmupFilter false
attr interpolationmode sample-hold
attr recordingmode vector
attr source "warmup(atomic(constant0(packetPushEnded) + sum(packetLength(packetPushStarted)) - sum(packetLength(packetPulled)) - sum(packetLength(packetRemoved)) - sum(packetLength(packetDropped))))"
attr title "queue bit length"
attr unit b
vector 112 IoTCommunication.baseStation.eth[3].queue queueingTime:vector ETV
attr interpolationmode none
attr recordingmode vector
attr source queueingTime(packetPulled)
attr title "queueing times"
attr unit s
vector 113 IoTCommunication.baseStation.eth[3].queue incomingPacketLengths:vector ETV
attr interpolationmode none
attr recordingmode vector
attr source packetLength(packetPushStarted)
attr title "incoming packet lengths"
attr unit b
vector 114 IoTCommunication.baseStation.eth[3].queue incomingDataRate:vector ETV
attr interpolationmode linear
attr recordingmode vector
attr source throughput(packetPushStarted)
attr title "incoming datarate"
attr unit bps
vector 115 IoTCommunication.baseStation.eth[3].queue outgoingPacketLengths:vector ETV
attr interpolationmode none
attr recordingmode vector
attr source packetLength(packetPulled)
attr title "outgoing packet lengths"
attr unit b
vector 116 IoTCommunication.baseStation.eth[3].queue outgoingDataRate:vector ETV
attr interpolationmode linear
attr recordingmode vector
attr source throughput(packetPulled)
attr title "outgoing datarate"
attr unit bps
vector 117 IoTCommunication.baseStation.eth[3].queue droppedPacketLengthsQueueOverflow:vector ETV
attr interpolationmode none
attr recordingmode vector
attr source packetLength(packetDropReasonIsQueueOverflow(packetDropped))
attr title "dropped packet lengths: queue overflow"
attr unit b
vector 118 IoTCommunication.baseStation.eth[3].queue flowQueueingTime:vector ETV
attr interpolationmode none
attr recordingmode vector
attr source queueingTime(demuxFlow(packetPulled))
attr title "flow queueing times"
attr unit s
vector 119 IoTCommunication.baseStation.eth[3].queue flowIncomingDataRate:vector ETV
attr interpolationmode linear
attr recordingmode vector
attr source throughput(flowPacketLength(demuxFlow(packetPushStarted)))
attr title "flow specific incoming data rate"
attr unit bps
vector 120 IoTCommunication.baseStation.eth[3].queue flowOutgoingDataRate:vector ETV
attr interpolationmode linear
attr recordingmode vector
attr source throughput(flowPacketLength(demuxFlow(packetPulled)))
attr title "flow specific outgoing data rate"
attr unit bps
vector 121 IoTCommunication.baseStation.eth[3].mac txPk:vector(packetBytes) ETV
attr interpolationmode none
attr recordingmode vector(packetBytes)
attr source packetSentToLower
attr title "packets transmitted, packetBytes"
vector 122 IoTCommunication.baseStation.eth[3].mac rxPkOk:vector(packetBytes) ETV
attr interpolationmode none
attr recordingmode vector(packetBytes)
attr source rxPkOk
attr title "packets received OK, packetBytes"
vector 123 IoTCommunication.baseStation.eth[3].mac passedUpPk:vector(packetBytes) ETV
attr interpolationmode none
attr recordingmode vector(packetBytes)
attr source packetSentToUpper
attr title "packets passed to higher layer, packetBytes"
vector 124 IoTCommunication.baseStation.eth[3].mac txPausePkUnits:vector ETV
attr interpolationmode none
attr recordingmode vector
attr title "pause units sent"
vector 125 IoTCommunication.baseStation.eth[3].mac rxPausePkUnits:vector ETV
attr interpolationmode none
attr recordingmode vector
attr title "pause units received"
vector 126 IoTCommunication.baseStation.eth[3].mac packetReceivedFromUpper:vector(packetBytes) ETV
attr interpolationmode none
attr recordingmode vector(packetBytes)
attr source packetReceivedFromUpper
attr title "packet bytes from higher layer, packetBytes"
vector 127 IoTCommunication.baseStation.eth[3].mac packetDropIncorrectlyReceived:vector(packetBytes) ETV
attr interpolationmode none
attr recordingmode vector(packetBytes)
attr source packetDropReasonIsIncorrectlyReceived(packetDropped)
attr title "packet drop: incorrectly received, packetBytes"
vector 128 IoTCommunication.baseStation.eth[3].mac packetDropInterfaceDown:vector(packetBytes) ETV
attr interpolationmode none
attr recordingmode vector(packetBytes)
attr source packetDropReasonIsInterfaceDown(packetDropped)
attr title "packet drop: interface down, packetBytes"
vector 129 IoTCommunication.baseStation.eth[3].mac packetDropNotAddressedToUs:vector(packetBytes) ETV
attr interpolationmode none
attr recordingmode vector(packetBytes)
attr source packetDropReasonIsNotAddressedToUs(packetDropped)
attr title "packet drop: not addressed to us, packetBytes"
vector 130 IoTCommunication.baseStation.eth[3] packetDropInterfaceDown:vector(packetBytes) ETV
attr interpolationmode none
attr recordingmode vector(packetBytes)
attr source packetDropReasonIsInterfaceDown(packetDropped)
attr title "packet drops: interface down, packetBytes"
vector 131 IoTCommunication.baseStation.eth[3] packetDropNoCarrier:vector(packetBytes) ETV
attr interpolationmode none
attr recordingmode vector(packetBytes)
attr source packetDropReasonIsNoCarrier(packetDropped)
attr title "packet drops: no carrier, packetBytes"
vector 132 IoTCommunication.baseStation.eth[4].queue queueLength:vector ETV
attr autoWarmupFilter false
attr interpolationmode sample-hold
attr recordingmode vector
attr source "warmup(atomic(constant0(packetPushEnded) + count(packetPushStarted) - count(packetPulled) - count(packetRemoved) - count(packetDropped)))"
attr title "queue length"
attr unit pk
vector 133 IoTCommunication.baseStation.eth[4].queue queueBitLength:vector ETV
attr autoWarmupFilter false
attr interpolationmode sample-hold
attr recordingmode vector
attr source "warmup(atomic(constant0(packetPushEnded) + sum(packetLength(packetPushStarted)) - sum(packetLength(packetPulled)) - sum(packetLength(packetRemoved)) - sum(packetLength(packetDropped))))"
attr title "queue bit length"
attr unit b
vector 134 IoTCommunication.baseStation.eth[4].queue queueingTime:vector ETV
attr interpolationmode none
attr recordingmode vector
attr source queueingTime(packetPulled)
attr title "queueing times"
attr unit s
vector 135 IoTCommunication.baseStation.eth[4].queue incomingPacketLengths:vector ETV
attr interpolationmode none
attr recordingmode vector
attr source packetLength(packetPushStarted)
attr title "incoming packet lengths"
attr unit b
vector 136 IoTCommunication.baseStation.eth[4].queue incomingDataRate:vector ETV
attr interpolationmode linear
attr recordingmode vector
attr source throughput(packetPushStarted)
attr title "incoming datarate"
attr unit bps
vector 137 IoTCommunication.baseStation.eth[4].queue outgoingPacketLengths:vector ETV
attr interpolationmode none
attr recordingmode vector
attr source packetLength(packetPulled)
attr title "outgoing packet lengths"
attr unit b
vector 138 IoTCommunication.baseStation.eth[4].queue outgoingDataRate:vector ETV
attr interpolationmode linear
attr recordingmode vector
attr source throughput(packetPulled)
attr title "outgoing datarate"
attr unit bps
vector 139 IoTCommunication.baseStation.eth[4].queue droppedPacketLengthsQueueOverflow:vector ETV
attr interpolationmode none
attr recordingmode vector
attr source packetLength(packetDropReasonIsQueueOverflow(packetDropped))
attr title "dropped packet lengths: queue overflow"
attr unit b
vector 140 IoTCommunication.baseStation.eth[4].queue flowQueueingTime:vector ETV
attr interpolationmode none
attr recordingmode vector
attr source queueingTime(demuxFlow(packetPulled))
attr title "flow queueing times"
attr unit s
vector 141 IoTCommunication.baseStation.eth[4].queue flowIncomingDataRate:vector ETV
attr interpolationmode linear
attr recordingmode vector
attr source throughput(flowPacketLength(demuxFlow(packetPushStarted)))
attr title "flow specific incoming data rate"
attr unit bps
vector 142 IoTCommunication.baseStation.eth[4].queue flowOutgoingDataRate:vector ETV
attr interpolationmode linear
attr recordingmode vector
attr source throughput(flowPacketLength(demuxFlow(packetPulled)))
attr title "flow specific outgoing data rate"
attr unit bps
vector 143 IoTCommunication.baseStation.eth[4].mac txPk:vector(packetBytes) ETV
attr interpolationmode none
attr recordingmode vector(packetBytes)
attr source packetSentToLower
attr title "packets transmitted, packetBytes"
vector 144 IoTCommunication.baseStation.eth[4].mac rxPkOk:vector(packetBytes) ETV
attr interpolationmode none
attr recordingmode vector(packetBytes)
attr source rxPkOk
attr title "packets received OK, packetBytes"
vector 145 IoTCommunication.baseStation.eth[4].mac passedUpPk:vector(packetBytes) ETV
attr interpolationmode none
attr recordingmode vector(packetBytes)
attr source packetSentToUpper
attr title "packets passed to higher layer, packetBytes"
vector 146 IoTCommunication.baseStation.eth[4].mac txPausePkUnits:vector ETV
attr interpolationmode none
attr recordingmode vector
attr title "pause units sent"
vector 147 IoTCommunication.baseStation.eth[4].mac rxPausePkUnits:vector ETV
attr interpolationmode none
attr recordingmode vector
attr title "pause units received"
vector 148 IoTCommunication.baseStation.eth[4].mac packetReceivedFromUpper:vector(packetBytes) ETV
attr interpolationmode none
attr recordingmode vector(packetBytes)
attr source packetReceivedFromUpper
attr title "packet bytes from higher layer, packetBytes"
vector 149 IoTCommunication.baseStation.eth[4].mac packetDropIncorrectlyReceived:vector(packetBytes) ETV
attr interpolationmode none
attr recordingmode vector(packetBytes)
attr source packetDropReasonIsIncorrectlyReceived(packetDropped)
attr title "packet drop: incorrectly received, packetBytes"
vector 150 IoTCommunication.baseStation.eth[4].mac packetDropInterfaceDown:vector(packetBytes) ETV
attr interpolationmode none
attr recordingmode vector(packetBytes)
attr source packetDropReasonIsInterfaceDown(packetDropped)
attr title "packet drop: interface down, packetBytes"
vector 151 IoTCommunication.baseStation.eth[4].mac packetDropNotAddressedToUs:vector(packetBytes) ETV
attr interpolationmode none
attr recordingmode vector(packetBytes)
attr source packetDropReasonIsNotAddressedToUs(packetDropped)
attr title "packet drop: not addressed to us, packetBytes"
vector 152 IoTCommunication.baseStation.eth[4] packetDropInterfaceDown:vector(packetBytes) ETV
attr interpolationmode none
attr recordingmode vector(packetBytes)
attr source packetDropReasonIsInterfaceDown(packetDropped)
attr title "packet drops: interface down, packetBytes"
vector 153 IoTCommunication.baseStation.eth[4] packetDropNoCarrier:vector(packetBytes) ETV
attr interpolationmode none
attr recordingmode vector(packetBytes)
attr source packetDropReasonIsNoCarrier(packetDropped)
attr title "packet drops: no carrier, packetBytes"
vector 154 IoTCommunication.baseStation.eth[5].queue queueLength:vector ETV
attr autoWarmupFilter false
attr interpolationmode sample-hold
attr recordingmode vector
attr source "warmup(atomic(constant0(packetPushEnded) + count(packetPushStarted) - count(packetPulled) - count(packetRemoved) - count(packetDropped)))"
attr title "queue length"
attr unit pk
vector 155 IoTCommunication.baseStation.eth[5].queue queueBitLength:vector ETV
attr autoWarmupFilter false
attr interpolationmode sample-hold
attr recordingmode vector
attr source "warmup(atomic(constant0(packetPushEnded) + sum(packetLength(packetPushStarted)) - sum(packetLength(packetPulled)) - sum(packetLength(packetRemoved)) - sum(packetLength(packetDropped))))"
attr title "queue bit length"
attr unit b
vector 156 IoTCommunication.baseStation.eth[5].queue queueingTime:vector ETV
attr interpolationmode none
attr recordingmode vector
attr source queueingTime(packetPulled)
attr title "queueing times"
attr unit s
vector 157 IoTCommunication.baseStation.eth[5].queue incomingPacketLengths:vector ETV
attr interpolationmode none
attr recordingmode vector
attr source packetLength(packetPushStarted)
attr title "incoming packet lengths"
attr unit b
vector 158 IoTCommunication.baseStation.eth[5].queue incomingDataRate:vector ETV
attr interpolationmode linear
attr recordingmode vector
attr source throughput(packetPushStarted)
attr title "incoming datarate"
attr unit bps
vector 159 IoTCommunication.baseStation.eth[5].queue outgoingPacketLengths:vector ETV
attr interpolationmode none
attr recordingmode vector
attr source packetLength(packetPulled)
attr title "outgoing packet lengths"
attr unit b
vector 160 IoTCommunication.baseStation.eth[5].queue outgoingDataRate:vector ETV
attr interpolationmode linear
attr recordingmode vector
attr source throughput(packetPulled)
attr title "outgoing datarate"
attr unit bps
vector 161 IoTCommunication.baseStation.eth[5].queue droppedPacketLengthsQueueOverflow:vector ETV
attr interpolationmode none
attr recordingmode vector
attr source packetLength(packetDropReasonIsQueueOverflow(packetDropped))
attr title "dropped packet lengths: queue overflow"
attr unit b
vector 162 IoTCommunication.baseStation.eth[5].queue flowQueueingTime:vector ETV
attr interpolationmode none
attr recordingmode vector
attr source queueingTime(demuxFlow(packetPulled))
attr title "flow queueing times"
attr unit s
vector 163 IoTCommunication.baseStation.eth[5].queue flowIncomingDataRate:vector ETV
attr interpolationmode linear
attr recordingmode vector
attr source throughput(flowPacketLength(demuxFlow(packetPushStarted)))
attr title "flow specific incoming data rate"
attr unit bps
vector 164 IoTCommunication.baseStation.eth[5].queue flowOutgoingDataRate:vector ETV
attr interpolationmode linear
attr recordingmode vector
attr source throughput(flowPacketLength(demuxFlow(packetPulled)))
attr title "flow specific outgoing data rate"
attr unit bps
vector 165 IoTCommunication.baseStation.eth[5].mac txPk:vector(packetBytes) ETV
attr interpolationmode none
attr recordingmode vector(packetBytes)
attr source packetSentToLower
attr title "packets transmitted, packetBytes"
vector 166 IoTCommunication.baseStation.eth[5].mac rxPkOk:vector(packetBytes) ETV
attr interpolationmode none
attr recordingmode vector(packetBytes)
attr source rxPkOk
attr title "packets received OK, packetBytes"
vector 167 IoTCommunication.baseStation.eth[5].mac passedUpPk:vector(packetBytes) ETV
attr interpolationmode none
attr recordingmode vector(packetBytes)
attr source packetSentToUpper
attr title "packets passed to higher layer, packetBytes"
vector 168 IoTCommunication.baseStation.eth[5].mac txPausePkUnits:vector ETV
attr interpolationmode none
attr recordingmode vector
attr title "pause units sent"
vector 169 IoTCommunication.baseStation.eth[5].mac rxPausePkUnits:vector ETV
attr interpolationmode none
attr recordingmode vector
attr title "pause units received"
vector 170 IoTCommunication.baseStation.eth[5].mac packetReceivedFromUpper:vector(packetBytes) ETV
attr interpolationmode none
attr recordingmode vector(packetBytes)
attr source packetReceivedFromUpper
attr title "packet bytes from higher layer, packetBytes"
vector 171 IoTCommunication.baseStation.eth[5].mac packetDropIncorrectlyReceived:vector(packetBytes) ETV
attr interpolationmode none
attr recordingmode vector(packetBytes)
attr source packetDropReasonIsIncorrectlyReceived(packetDropped)
attr title "packet drop: incorrectly received, packetBytes"
vector 172 IoTCommunication.baseStation.eth[5].mac packetDropInterfaceDown:vector(packetBytes) ETV
attr interpolationmode none
attr recordingmode vector(packetBytes)
attr source packetDropReasonIsInterfaceDown(packetDropped)
attr title "packet drop: interface down, packetBytes"
vector 173 IoTCommunication.baseStation.eth[5].mac packetDropNotAddressedToUs:vector(packetBytes) ETV
attr interpolationmode none
attr recordingmode vector(packetBytes)
attr source packetDropReasonIsNotAddressedToUs(packetDropped)
attr title "packet drop: not addressed to us, packetBytes"
vector 174 IoTCommunication.baseStation.eth[5] packetDropInterfaceDown:vector(packetBytes) ETV
attr interpolationmode none
attr recordingmode vector(packetBytes)
attr source packetDropReasonIsInterfaceDown(packetDropped)
attr title "packet drops: interface down, packetBytes"
vector 175 IoTCommunication.baseStation.eth[5] packetDropNoCarrier:vector(packetBytes) ETV
attr interpolationmode none
attr recordingmode vector(packetBytes)
attr source packetDropReasonIsNoCarrier(packetDropped)
attr title "packet drops: no carrier, packetBytes"
vector 176 IoTCommunication.baseStation.eth[6].queue queueLength:vector ETV
attr autoWarmupFilter false
attr interpolationmode sample-hold
attr recordingmode vector
attr source "warmup(atomic(constant0(packetPushEnded) + count(packetPushStarted) - count(packetPulled) - count(packetRemoved) - count(packetDropped)))"
attr title "queue length"
attr unit pk
vector 177 IoTCommunication.baseStation.eth[6].queue queueBitLength:vector ETV
attr autoWarmupFilter false
attr interpolationmode sample-hold
attr recordingmode vector
attr source "warmup(atomic(constant0(packetPushEnded) + sum(packetLength(packetPushStarted)) - sum(packetLength(packetPulled)) - sum(packetLength(packetRemoved)) - sum(packetLength(packetDropped))))"
attr title "queue bit length"
attr unit b
vector 178 IoTCommunication.baseStation.eth[6].queue queueingTime:vector ETV
attr interpolationmode none
attr recordingmode vector
attr source queueingTime(packetPulled)
attr title "queueing times"
attr unit s
vector 179 IoTCommunication.baseStation.eth[6].queue incomingPacketLengths:vector ETV
attr interpolationmode none
attr recordingmode vector
attr source packetLength(packetPushStarted)
attr title "incoming packet lengths"
attr unit b
vector 180 IoTCommunication.baseStation.eth[6].queue incomingDataRate:vector ETV
attr interpolationmode linear
attr recordingmode vector
attr source throughput(packetPushStarted)
attr title "incoming datarate"
attr unit bps
vector 181 IoTCommunication.baseStation.eth[6].queue outgoingPacketLengths:vector ETV
attr interpolationmode none
attr recordingmode vector
attr source packetLength(packetPulled)
attr title "outgoing packet lengths"
attr unit b
vector 182 IoTCommunication.baseStation.eth[6].queue outgoingDataRate:vector ETV
attr interpolationmode linear
attr recordingmode vector
attr source throughput(packetPulled)
attr title "outgoing datarate"
attr unit bps
vector 183 IoTCommunication.baseStation.eth[6].queue droppedPacketLengthsQueueOverflow:vector ETV
attr interpolationmode none
attr recordingmode vector
attr source packetLength(packetDropReasonIsQueueOverflow(packetDropped))
attr title "dropped packet lengths: queue overflow"
attr unit b
vector 184 IoTCommunication.baseStation.eth[6].queue flowQueueingTime:vector ETV
attr interpolationmode none
attr recordingmode vector
attr source queueingTime(demuxFlow(packetPulled))
attr title "flow queueing times"
attr unit s
vector 185 IoTCommunication.baseStation.eth[6].queue flowIncomingDataRate:vector ETV
attr interpolationmode linear
attr recordingmode vector
attr source throughput(flowPacketLength(demuxFlow(packetPushStarted)))
attr title "flow specific incoming data rate"
attr unit bps
vector 186 IoTCommunication.baseStation.eth[6].queue flowOutgoingDataRate:vector ETV
attr interpolationmode linear
attr recordingmode vector
attr source throughput(flowPacketLength(demuxFlow(packetPulled)))
attr title "flow specific outgoing data rate"
attr unit bps
vector 187 IoTCommunication.baseStation.eth[6].mac txPk:vector(packetBytes) ETV
attr interpolationmode none
attr recordingmode vector(packetBytes)
attr source packetSentToLower
attr title "packets transmitted, packetBytes"
vector 188 IoTCommunication.baseStation.eth[6].mac rxPkOk:vector(packetBytes) ETV
attr interpolationmode none
attr recordingmode vector(packetBytes)
attr source rxPkOk
attr title "packets received OK, packetBytes"
vector 189 IoTCommunication.baseStation.eth[6].mac passedUpPk:vector(packetBytes) ETV
attr interpolationmode none
attr recordingmode vector(packetBytes)
attr source packetSentToUpper
attr title "packets passed to higher layer, packetBytes"
vector 190 IoTCommunication.baseStation.eth[6].mac txPausePkUnits:vector ETV
attr interpolationmode none
attr recordingmode vector
attr title "pause units sent"
vector 191 IoTCommunication.baseStation.eth[6].mac rxPausePkUnits:vector ETV
attr interpolationmode none
attr recordingmode vector
attr title "pause units received"
vector 192 IoTCommunication.baseStation.eth[6].mac packetReceivedFromUpper:vector(packetBytes) ETV
attr interpolationmode none
attr recordingmode vector(packetBytes)
attr source packetReceivedFromUpper
attr title "packet bytes from higher layer, packetBytes"
vector 193 IoTCommunication.baseStation.eth[6].mac packetDropIncorrectlyReceived:vector(packetBytes) ETV
attr interpolationmode none
attr recordingmode vector(packetBytes)
attr source packetDropReasonIsIncorrectlyReceived(packetDropped)
attr title "packet drop: incorrectly received, packetBytes"
vector 194 IoTCommunication.baseStation.eth[6].mac packetDropInterfaceDown:vector(packetBytes) ETV
attr interpolationmode none
attr recordingmode vector(packetBytes)
attr source packetDropReasonIsInterfaceDown(packetDropped)
attr title "packet drop: interface down, packetBytes"
vector 195 IoTCommunication.baseStation.eth[6].mac packetDropNotAddressedToUs:vector(packetBytes) ETV
attr interpolationmode none
attr recordingmode vector(packetBytes)
attr source packetDropReasonIsNotAddressedToUs(packetDropped)
attr title "packet drop: not addressed to us, packetBytes"
vector 196 IoTCommunication.baseStation.eth[6] packetDropInterfaceDown:vector(packetBytes) ETV
attr interpolationmode none
attr recordingmode vector(packetBytes)
attr source packetDropReasonIsInterfaceDown(packetDropped)
attr title "packet drops: interface down, packetBytes"
vector 197 IoTCommunication.baseStation.eth[6] packetDropNoCarrier:vector(packetBytes) ETV
attr interpolationmode none
attr recordingmode vector(packetBytes)
attr source packetDropReasonIsNoCarrier(packetDropped)
attr title "packet drops: no carrier, packetBytes"
vector 198 IoTCommunication.baseStation.eth[7].queue queueLength:vector ETV
attr autoWarmupFilter false
attr interpolationmode sample-hold
attr recordingmode vector
attr source "warmup(atomic(constant0(packetPushEnded) + count(packetPushStarted) - count(packetPulled) - count(packetRemoved) - count(packetDropped)))"
attr title "queue length"
attr unit pk
vector 199 IoTCommunication.baseStation.eth[7].queue queueBitLength:vector ETV
attr autoWarmupFilter false
attr interpolationmode sample-hold
attr recordingmode vector
attr source "warmup(atomic(constant0(packetPushEnded) + sum(packetLength(packetPushStarted)) - sum(packetLength(packetPulled)) - sum(packetLength(packetRemoved)) - sum(packetLength(packetDropped))))"
attr title "queue bit length"
attr unit b
vector 200 IoTCommunication.baseStation.eth[7].queue queueingTime:vector ETV
attr interpolationmode none
attr recordingmode vector
attr source queueingTime(packetPulled)
attr title "queueing times"
attr unit s
vector 201 IoTCommunication.baseStation.eth[7].queue incomingPacketLengths:vector ETV
attr interpolationmode none
attr recordingmode vector
attr source packetLength(packetPushStarted)
attr title "incoming packet lengths"
attr unit b
vector 202 IoTCommunication.baseStation.eth[7].queue incomingDataRate:vector ETV
attr interpolationmode linear
attr recordingmode vector
attr source throughput(packetPushStarted)
attr title "incoming datarate"
attr unit bps
vector 203 IoTCommunication.baseStation.eth[7].queue outgoingPacketLengths:vector ETV
attr interpolationmode none
attr recordingmode vector
attr source packetLength(packetPulled)
attr title "outgoing packet lengths"
attr unit b
vector 204 IoTCommunication.baseStation.eth[7].queue outgoingDataRate:vector ETV
attr interpolationmode linear
attr recordingmode vector
attr source throughput(packetPulled)
attr title "outgoing datarate"
attr unit bps
vector 205 IoTCommunication.baseStation.eth[7].queue droppedPacketLengthsQueueOverflow:vector ETV
attr interpolationmode none
attr recordingmode vector
attr source packetLength(packetDropReasonIsQueueOverflow(packetDropped))
attr title "dropped packet lengths: queue overflow"
attr unit b
vector 206 IoTCommunication.baseStation.eth[7].queue flowQueueingTime:vector ETV
attr interpolationmode none
attr recordingmode vector
attr source queueingTime(demuxFlow(packetPulled))
attr title "flow queueing times"
attr unit s
vector 207 IoTCommunication.baseStation.eth[7].queue flowIncomingDataRate:vector ETV
attr interpolationmode linear
attr recordingmode vector
attr source throughput(flowPacketLength(demuxFlow(packetPushStarted)))
attr title "flow specific incoming data rate"
attr unit bps
vector 208 IoTCommunication.baseStation.eth[7].queue flowOutgoingDataRate:vector ETV
attr interpolationmode linear
attr recordingmode vector
attr source throughput(flowPacketLength(demuxFlow(packetPulled)))
attr title "flow specific outgoing data rate"
attr unit bps
vector 209 IoTCommunication.baseStation.eth[7].mac txPk:vector(packetBytes) ETV
attr interpolationmode none
attr recordingmode vector(packetBytes)
attr source packetSentToLower
attr title "packets transmitted, packetBytes"
vector 210 IoTCommunication.baseStation.eth[7].mac rxPkOk:vector(packetBytes) ETV
attr interpolationmode none
attr recordingmode vector(packetBytes)
attr source rxPkOk
attr title "packets received OK, packetBytes"
vector 211 IoTCommunication.baseStation.eth[7].mac passedUpPk:vector(packetBytes) ETV
attr interpolationmode none
attr recordingmode vector(packetBytes)
attr source packetSentToUpper
attr title "packets passed to higher layer, packetBytes"
vector 212 IoTCommunication.baseStation.eth[7].mac txPausePkUnits:vector ETV
attr interpolationmode none
attr recordingmode vector
attr title "pause units sent"
vector 213 IoTCommunication.baseStation.eth[7].mac rxPausePkUnits:vector ETV
attr interpolationmode none
attr recordingmode vector
attr title "pause units received"
vector 214 IoTCommunication.baseStation.eth[7].mac packetReceivedFromUpper:vector(packetBytes) ETV
attr interpolationmode none
attr recordingmode vector(packetBytes)
attr source packetReceivedFromUpper
attr title "packet bytes from higher layer, packetBytes"
vector 215 IoTCommunication.baseStation.eth[7].mac packetDropIncorrectlyReceived:vector(packetBytes) ETV
attr interpolationmode none
attr recordingmode vector(packetBytes)
attr source packetDropReasonIsIncorrectlyReceived(packetDropped)
attr title "packet drop: incorrectly received, packetBytes"
vector 216 IoTCommunication.baseStation.eth[7].mac packetDropInterfaceDown:vector(packetBytes) ETV
attr interpolationmode none
attr recordingmode vector(packetBytes)
attr source packetDropReasonIsInterfaceDown(packetDropped)
attr title "packet drop: interface down, packetBytes"
vector 217 IoTCommunication.baseStation.eth[7].mac packetDropNotAddressedToUs:vector(packetBytes) ETV
attr interpolationmode none
attr recordingmode vector(packetBytes)
attr source packetDropReasonIsNotAddressedToUs(packetDropped)
attr title "packet drop: not addressed to us, packetBytes"
vector 218 IoTCommunication.baseStation.eth[7] packetDropInterfaceDown:vector(packetBytes) ETV
attr interpolationmode none
attr recordingmode vector(packetBytes)
attr source packetDropReasonIsInterfaceDown(packetDropped)
attr title "packet drops: interface down, packetBytes"
vector 219 IoTCommunication.baseStation.eth[7] packetDropNoCarrier:vector(packetBytes) ETV
attr interpolationmode none
attr recordingmode vector(packetBytes)
attr source packetDropReasonIsNoCarrier(packetDropped)
attr title "packet drops: no carrier, packetBytes"
vector 220 IoTCommunication.baseStation.eth[8].queue queueLength:vector ETV
attr autoWarmupFilter false
attr interpolationmode sample-hold
attr recordingmode vector
attr source "warmup(atomic(constant0(packetPushEnded) + count(packetPushStarted) - count(packetPulled) - count(packetRemoved) - count(packetDropped)))"
attr title "queue length"
attr unit pk
vector 221 IoTCommunication.baseStation.eth[8].queue queueBitLength:vector ETV
attr autoWarmupFilter false
attr interpolationmode sample-hold
attr recordingmode vector
attr source "warmup(atomic(constant0(packetPushEnded) + sum(packetLength(packetPushStarted)) - sum(packetLength(packetPulled)) - sum(packetLength(packetRemoved)) - sum(packetLength(packetDropped))))"
attr title "queue bit length"
attr unit b
vector 222 IoTCommunication.baseStation.eth[8].queue queueingTime:vector ETV
attr interpolationmode none
attr recordingmode vector
attr source queueingTime(packetPulled)
attr title "queueing times"
attr unit s
vector 223 IoTCommunication.baseStation.eth[8].queue incomingPacketLengths:vector ETV
attr interpolationmode none
attr recordingmode vector
attr source packetLength(packetPushStarted)
attr title "incoming packet lengths"
attr unit b
vector 224 IoTCommunication.baseStation.eth[8].queue incomingDataRate:vector ETV
attr interpolationmode linear
attr recordingmode vector
attr source throughput(packetPushStarted)
attr title "incoming datarate"
attr unit bps
vector 225 IoTCommunication.baseStation.eth[8].queue outgoingPacketLengths:vector ETV
attr interpolationmode none
attr recordingmode vector
attr source packetLength(packetPulled)
attr title "outgoing packet lengths"
attr unit b
vector 226 IoTCommunication.baseStation.eth[8].queue outgoingDataRate:vector ETV
attr interpolationmode linear
attr recordingmode vector
attr source throughput(packetPulled)
attr title "outgoing datarate"
attr unit bps
vector 227 IoTCommunication.baseStation.eth[8].queue droppedPacketLengthsQueueOverflow:vector ETV
attr interpolationmode none
attr recordingmode vector
attr source packetLength(packetDropReasonIsQueueOverflow(packetDropped))
attr title "dropped packet lengths: queue overflow"
attr unit b
vector 228 IoTCommunication.baseStation.eth[8].queue flowQueueingTime:vector ETV
attr interpolationmode none
attr recordingmode vector
attr source queueingTime(demuxFlow(packetPulled))
attr title "flow queueing times"
attr unit s
vector 229 IoTCommunication.baseStation.eth[8].queue flowIncomingDataRate:vector ETV
attr interpolationmode linear
attr recordingmode vector
attr source throughput(flowPacketLength(demuxFlow(packetPushStarted)))
attr title "flow specific incoming data rate"
attr unit bps
vector 230 IoTCommunication.baseStation.eth[8].queue flowOutgoingDataRate:vector ETV
attr interpolationmode linear
attr recordingmode vector
attr source throughput(flowPacketLength(demuxFlow(packetPulled)))
attr title "flow specific outgoing data rate"
attr unit bps
vector 231 IoTCommunication.baseStation.eth[8].mac txPk:vector(packetBytes) ETV
attr interpolationmode none
attr recordingmode vector(packetBytes)
attr source packetSentToLower
attr title "packets transmitted, packetBytes"
vector 232 IoTCommunication.baseStation.eth[8].mac rxPkOk:vector(packetBytes) ETV
attr interpolationmode none
attr recordingmode vector(packetBytes)
attr source rxPkOk
attr title "packets received OK, packetBytes"
vector 233 IoTCommunication.baseStation.eth[8].mac passedUpPk:vector(packetBytes) ETV
attr interpolationmode none
attr recordingmode vector(packetBytes)
attr source packetSentToUpper
attr title "packets passed to higher layer, packetBytes"
vector 234 IoTCommunication.baseStation.eth[8].mac txPausePkUnits:vector ETV
attr interpolationmode none
attr recordingmode vector
attr title "pause units sent"
vector 235 IoTCommunication.baseStation.eth[8].mac rxPausePkUnits:vector ETV
attr interpolationmode none
attr recordingmode vector
attr title "pause units received"
vector 236 IoTCommunication.baseStation.eth[8].mac packetReceivedFromUpper:vector(packetBytes) ETV
attr interpolationmode none
attr recordingmode vector(packetBytes)
attr source packetReceivedFromUpper
attr title "packet bytes from higher layer, packetBytes"
vector 237 IoTCommunication.baseStation.eth[8].mac packetDropIncorrectlyReceived:vector(packetBytes) ETV
attr interpolationmode none
attr recordingmode vector(packetBytes)
attr source packetDropReasonIsIncorrectlyReceived(packetDropped)
attr title "packet drop: incorrectly received, packetBytes"
vector 238 IoTCommunication.baseStation.eth[8].mac packetDropInterfaceDown:vector(packetBytes) ETV
attr interpolationmode none
attr recordingmode vector(packetBytes)
attr source packetDropReasonIsInterfaceDown(packetDropped)
attr title "packet drop: interface down, packetBytes"
vector 239 IoTCommunication.baseStation.eth[8].mac packetDropNotAddressedToUs:vector(packetBytes) ETV
attr interpolationmode none
attr recordingmode vector(packetBytes)
attr source packetDropReasonIsNotAddressedToUs(packetDropped)
attr title "packet drop: not addressed to us, packetBytes"
vector 240 IoTCommunication.baseStation.eth[8] packetDropInterfaceDown:vector(packetBytes) ETV
attr interpolationmode none
attr recordingmode vector(packetBytes)
attr source packetDropReasonIsInterfaceDown(packetDropped)
attr title "packet drops: interface down, packetBytes"
vector 241 IoTCommunication.baseStation.eth[8] packetDropNoCarrier:vector(packetBytes) ETV
attr interpolationmode none
attr recordingmode vector(packetBytes)
attr source packetDropReasonIsNoCarrier(packetDropped)
attr title "packet drops: no carrier, packetBytes"
vector 242 IoTCommunication.baseStation.eth[9].queue queueLength:vector ETV
attr autoWarmupFilter false
attr interpolationmode sample-hold
attr recordingmode vector
attr source "warmup(atomic(constant0(packetPushEnded) + count(packetPushStarted) - count(packetPulled) - count(packetRemoved) - count(packetDropped)))"
attr title "queue length"
attr unit pk
vector 243 IoTCommunication.baseStation.eth[9].queue queueBitLength:vector ETV
attr autoWarmupFilter false
attr interpolationmode sample-hold
attr recordingmode vector
attr source "warmup(atomic(constant0(packetPushEnded) + sum(packetLength(packetPushStarted)) - sum(packetLength(packetPulled)) - sum(packetLength(packetRemoved)) - sum(packetLength(packetDropped))))"
attr title "queue bit length"
attr unit b
vector 244 IoTCommunication.baseStation.eth[9].queue queueingTime:vector ETV
attr interpolationmode none
attr recordingmode vector
attr source queueingTime(packetPulled)
attr title "queueing times"
attr unit s
vector 245 IoTCommunication.baseStation.eth[9].queue incomingPacketLengths:vector ETV
attr interpolationmode none
attr recordingmode vector
attr source packetLength(packetPushStarted)
attr title "incoming packet lengths"
attr unit b
vector 246 IoTCommunication.baseStation.eth[9].queue incomingDataRate:vector ETV
attr interpolationmode linear
attr recordingmode vector
attr source throughput(packetPushStarted)
attr title "incoming datarate"
attr unit bps
vector 247 IoTCommunication.baseStation.eth[9].queue outgoingPacketLengths:vector ETV
attr interpolationmode none
attr recordingmode vector
attr source packetLength(packetPulled)
attr title "outgoing packet lengths"
attr unit b
vector 248 IoTCommunication.baseStation.eth[9].queue outgoingDataRate:vector ETV
attr interpolationmode linear
attr recordingmode vector
attr source throughput(packetPulled)
attr title "outgoing datarate"
attr unit bps
vector 249 IoTCommunication.baseStation.eth[9].queue droppedPacketLengthsQueueOverflow:vector ETV
attr interpolationmode none
attr recordingmode vector
attr source packetLength(packetDropReasonIsQueueOverflow(packetDropped))
attr title "dropped packet lengths: queue overflow"
attr unit b
vector 250 IoTCommunication.baseStation.eth[9].queue flowQueueingTime:vector ETV
attr interpolationmode none
attr recordingmode vector
attr source queueingTime(demuxFlow(packetPulled))
attr title "flow queueing times"
attr unit s
vector 251 IoTCommunication.baseStation.eth[9].queue flowIncomingDataRate:vector ETV
attr interpolationmode linear
attr recordingmode vector
attr source throughput(flowPacketLength(demuxFlow(packetPushStarted)))
attr title "flow specific incoming data rate"
attr unit bps
vector 252 IoTCommunication.baseStation.eth[9].queue flowOutgoingDataRate:vector ETV
attr interpolationmode linear
attr recordingmode vector
attr source throughput(flowPacketLength(demuxFlow(packetPulled)))
attr title "flow specific outgoing data rate"
attr unit bps
vector 253 IoTCommunication.baseStation.eth[9].mac txPk:vector(packetBytes) ETV
attr interpolationmode none
attr recordingmode vector(packetBytes)
attr source packetSentToLower
attr title "packets transmitted, packetBytes"
vector 254 IoTCommunication.baseStation.eth[9].mac rxPkOk:vector(packetBytes) ETV
attr interpolationmode none
attr recordingmode vector(packetBytes)
attr source rxPkOk
attr title "packets received OK, packetBytes"
vector 255 IoTCommunication.baseStation.eth[9].mac passedUpPk:vector(packetBytes) ETV
attr interpolationmode none
attr recordingmode vector(packetBytes)
attr source packetSentToUpper
attr title "packets passed to higher layer, packetBytes"
vector 256 IoTCommunication.baseStation.eth[9].mac txPausePkUnits:vector ETV
attr interpolationmode none
attr recordingmode vector
attr title "pause units sent"
vector 257 IoTCommunication.baseStation.eth[9].mac rxPausePkUnits:vector ETV
attr interpolationmode none
attr recordingmode vector
attr title "pause units received"
vector 258 IoTCommunication.baseStation.eth[9].mac packetReceivedFromUpper:vector(packetBytes) ETV
attr interpolationmode none
attr recordingmode vector(packetBytes)
attr source packetReceivedFromUpper
attr title "packet bytes from higher layer, packetBytes"
vector 259 IoTCommunication.baseStation.eth[9].mac packetDropIncorrectlyReceived:vector(packetBytes) ETV
attr interpolationmode none
attr recordingmode vector(packetBytes)
attr source packetDropReasonIsIncorrectlyReceived(packetDropped)
attr title "packet drop: incorrectly received, packetBytes"
vector 260 IoTCommunication.baseStation.eth[9].mac packetDropInterfaceDown:vector(packetBytes) ETV
attr interpolationmode none
attr recordingmode vector(packetBytes)
attr source packetDropReasonIsInterfaceDown(packetDropped)
attr title "packet drop: interface down, packetBytes"
vector 261 IoTCommunication.baseStation.eth[9].mac packetDropNotAddressedToUs:vector(packetBytes) ETV
attr interpolationmode none
attr recordingmode vector(packetBytes)
attr source packetDropReasonIsNotAddressedToUs(packetDropped)
attr title "packet drop: not addressed to us, packetBytes"
vector 262 IoTCommunication.baseStation.eth[9] packetDropInterfaceDown:vector(packetBytes) ETV
attr interpolationmode none
attr recordingmode vector(packetBytes)
attr source packetDropReasonIsInterfaceDown(packetDropped)
attr title "packet drops: interface down, packetBytes"
vector 263 IoTCommunication.baseStation.eth[9] packetDropNoCarrier:vector(packetBytes) ETV
attr interpolationmode none
attr recordingmode vector(packetBytes)
attr source packetDropReasonIsNoCarrier(packetDropped)
attr title "packet drops: no carrier, packetBytes"
vector 264 IoTCommunication.baseStation.eth[10].queue queueLength:vector ETV
attr autoWarmupFilter false
attr interpolationmode sample-hold
attr recordingmode vector
attr source "warmup(atomic(constant0(packetPushEnded) + count(packetPushStarted) - count(packetPulled) - count(packetRemoved) - count(packetDropped)))"
attr title "queue length"
attr unit pk
vector 265 IoTCommunication.baseStation.eth[10].queue queueBitLength:vector ETV
attr autoWarmupFilter false
attr interpolationmode sample-hold
attr recordingmode vector
attr source "warmup(atomic(constant0(packetPushEnded) + sum(packetLength(packetPushStarted)) - sum(packetLength(packetPulled)) - sum(packetLength(packetRemoved)) - sum(packetLength(packetDropped))))"
attr title "queue bit length"
attr unit b
vector 266 IoTCommunication.baseStation.eth[10].queue queueingTime:vector ETV
attr interpolationmode none
attr recordingmode vector
attr source queueingTime(packetPulled)
attr title "queueing times"
attr unit s
vector 267 IoTCommunication.baseStation.eth[10].queue incomingPacketLengths:vector ETV
attr interpolationmode none
attr recordingmode vector
attr source packetLength(packetPushStarted)
attr title "incoming packet lengths"
attr unit b
vector 268 IoTCommunication.baseStation.eth[10].queue incomingDataRate:vector ETV
attr interpolationmode linear
attr recordingmode vector
attr source throughput(packetPushStarted)
attr title "incoming datarate"
attr unit bps
vector 269 IoTCommunication.baseStation.eth[10].queue outgoingPacketLengths:vector ETV
attr interpolationmode none
attr recordingmode vector
attr source packetLength(packetPulled)
attr title "outgoing packet lengths"
attr unit b
vector 270 IoTCommunication.baseStation.eth[10].queue outgoingDataRate:vector ETV
attr interpolationmode linear
attr recordingmode vector
attr source throughput(packetPulled)
attr title "outgoing datarate"
attr unit bps
vector 271 IoTCommunication.baseStation.eth[10].queue droppedPacketLengthsQueueOverflow:vector ETV
attr interpolationmode none
attr recordingmode vector
attr source packetLength(packetDropReasonIsQueueOverflow(packetDropped))
attr title "dropped packet lengths: queue overflow"
attr unit b
vector 272 IoTCommunication.baseStation.eth[10].queue flowQueueingTime:vector ETV
attr interpolationmode none
attr recordingmode vector
attr source queueingTime(demuxFlow(packetPulled))
attr title "flow queueing times"
attr unit s
vector 273 IoTCommunication.baseStation.eth[10].queue flowIncomingDataRate:vector ETV
attr interpolationmode linear
attr recordingmode vector
attr source throughput(flowPacketLength(demuxFlow(packetPushStarted)))
attr title "flow specific incoming data rate"
attr unit bps
vector 274 IoTCommunication.baseStation.eth[10].queue flowOutgoingDataRate:vector ETV
attr interpolationmode linear
attr recordingmode vector
attr source throughput(flowPacketLength(demuxFlow(packetPulled)))
attr title "flow specific outgoing data rate"
attr unit bps
vector 275 IoTCommunication.baseStation.eth[10].mac txPk:vector(packetBytes) ETV
attr interpolationmode none
attr recordingmode vector(packetBytes)
attr source packetSentToLower
attr title "packets transmitted, packetBytes"
vector 276 IoTCommunication.baseStation.eth[10].mac rxPkOk:vector(packetBytes) ETV
attr interpolationmode none
attr recordingmode vector(packetBytes)
attr source rxPkOk
attr title "packets received OK, packetBytes"
vector 277 IoTCommunication.baseStation.eth[10].mac passedUpPk:vector(packetBytes) ETV
attr interpolationmode none
attr recordingmode vector(packetBytes)
attr source packetSentToUpper
attr title "packets passed to higher layer, packetBytes"
vector 278 IoTCommunication.baseStation.eth[10].mac txPausePkUnits:vector ETV
attr interpolationmode none
attr recordingmode vector
attr title "pause units sent"
vector 279 IoTCommunication.baseStation.eth[10].mac rxPausePkUnits:vector ETV
attr interpolationmode none
attr recordingmode vector
attr title "pause units received"
vector 280 IoTCommunication.baseStation.eth[10].mac packetReceivedFromUpper:vector(packetBytes) ETV
attr interpolationmode none
attr recordingmode vector(packetBytes)
attr source packetReceivedFromUpper
attr title "packet bytes from higher layer, packetBytes"
vector 281 IoTCommunication.baseStation.eth[10].mac packetDropIncorrectlyReceived:vector(packetBytes) ETV
attr interpolationmode none
attr recordingmode vector(packetBytes)
attr source packetDropReasonIsIncorrectlyReceived(packetDropped)
attr title "packet drop: incorrectly received, packetBytes"
vector 282 IoTCommunication.baseStation.eth[10].mac packetDropInterfaceDown:vector(packetBytes) ETV
attr interpolationmode none
attr recordingmode vector(packetBytes)
attr source packetDropReasonIsInterfaceDown(packetDropped)
attr title "packet drop: interface down, packetBytes"
vector 283 IoTCommunication.baseStation.eth[10].mac packetDropNotAddressedToUs:vector(packetBytes) ETV
attr interpolationmode none
attr recordingmode vector(packetBytes)
attr source packetDropReasonIsNotAddressedToUs(packetDropped)
attr title "packet drop: not addressed to us, packetBytes"
vector 284 IoTCommunication.baseStation.eth[10] packetDropInterfaceDown:vector(packetBytes) ETV
attr interpolationmode none
attr recordingmode vector(packetBytes)
attr source packetDropReasonIsInterfaceDown(packetDropped)
attr title "packet drops: interface down, packetBytes"
vector 285 IoTCommunication.baseStation.eth[10] packetDropNoCarrier:vector(packetBytes) ETV
attr interpolationmode none
attr recordingmode vector(packetBytes)
attr source packetDropReasonIsNoCarrier(packetDropped)
attr title "packet drops: no carrier, packetBytes"
vector 286 IoTCommunication.baseStation.ipv4.ip packetDropAddressResolutionFailed:vector(packetBytes) ETV
attr interpolationmode none
attr recordingmode vector(packetBytes)
attr source packetDropReasonIsAddressResolutionFailed(packetDropped)
attr title "packet drop: address resolution failed, packetBytes"
vector 287 IoTCommunication.baseStation.ipv4.ip packetDropHopLimitReached:vector(packetBytes) ETV
attr interpolationmode none
attr recordingmode vector(packetBytes)
attr source packetDropReasonIsHopLimitReached(packetDropped)
attr title "packet drop: hop limit reached, packetBytes"
vector 288 IoTCommunication.baseStation.ipv4.ip packetDropForwardingDisabled:vector(packetBytes) ETV
attr interpolationmode none
attr recordingmode vector(packetBytes)
attr source packetDropReasonIsForwardingDisabled(packetDropped)
attr title "packet drop: forwarding disabled, packetBytes"
vector 289 IoTCommunication.baseStation.ipv4.ip packetDropNoInterfaceFound:vector(packetBytes) ETV
attr interpolationmode none
attr recordingmode vector(packetBytes)
attr source packetDropReasonIsNoInterfaceFound(packetDropped)
attr title "packet drop: no interface found, packetBytes"
vector 290 IoTCommunication.baseStation.ipv4.ip packetDropNoRouteFound:vector(packetBytes) ETV
attr interpolationmode none
attr recordingmode vector(packetBytes)
attr source packetDropReasonIsNoRouteFound(packetDropped)
attr title "packet drop: no route found, packetBytes"
vector 291 IoTCommunication.baseStation.ipv4.ip packetDropUndefined:vector(packetBytes) ETV
attr interpolationmode none
attr recordingmode vector(packetBytes)
attr source packetDropReasonIsUndefined(packetDropped)
attr title "packet drop: undefined, packetBytes"
vector 292 IoTCommunication.baseStation.ipv4.arp arpRequestSent:vector(packetBytes) ETV
attr recordingmode vector(packetBytes)
attr source arpRequestSent
attr title "ARP request sent, packetBytes"
vector 293 IoTCommunication.baseStation.ipv4.arp arpReplySent:vector(packetBytes) ETV
attr recordingmode vector(packetBytes)
attr source arpReplySent
attr title "ARP replies sent, packetBytes"
vector 294 IoTCommunication.iotDevice[0].ethernet encapPk:vector(packetBytes) ETV
attr interpolationmode none
attr recordingmode vector(packetBytes)
attr source encapPk
attr title "packets encapsulated, packetBytes"
vector 295 IoTCommunication.iotDevice[0].ethernet decapPk:vector(packetBytes) ETV
attr interpolationmode none
attr recordingmode vector(packetBytes)
attr source decapPk
attr title "packets decapsulated, packetBytes"
vector 296 IoTCommunication.iotDevice[0].ethernet pauseSent:vector ETV
attr recordingmode vector
attr title "pause sent"
vector 297 IoTCommunication.iotDevice[0].lo[0].lo rcvdPkFromHl:vector(packetBytes) ETV
attr interpolationmode none
attr recordingmode vector(packetBytes)
attr source packetReceivedFromUpper
attr title "packets received from higher layer, packetBytes"
vector 298 IoTCommunication.iotDevice[0].lo[0].lo passedUpPk:vector(packetBytes) ETV
attr interpolationmode none
attr recordingmode vector(packetBytes)
attr source packetSentToUpper
attr title "packets passed to higher layer, packetBytes"
vector 299 IoTCommunication.iotDevice[0].lo[0] packetDropInterfaceDown:vector(packetBytes) ETV
attr interpolationmode none
attr recordingmode vector(packetBytes)
attr source packetDropReasonIsInterfaceDown(packetDropped)
attr title "packet drops: interface down, packetBytes"
vector 300 IoTCommunication.iotDevice[0].lo[0] packetDropNoCarrier:vector(packetBytes) ETV
attr interpolationmode none
attr recordingmode vector(packetBytes)
attr source packetDropReasonIsNoCarrier(packetDropped)
attr title "packet drops: no carrier, packetBytes"
vector 301 IoTCommunication.iotDevice[0].eth[0].queue queueLength:vector ETV
attr autoWarmupFilter false
attr interpolationmode sample-hold
attr recordingmode vector
attr source "warmup(atomic(constant0(packetPushEnded) + count(packetPushStarted) - count(packetPulled) - count(packetRemoved) - count(packetDropped)))"
attr title "queue length"
attr unit pk
vector 302 IoTCommunication.iotDevice[0].eth[0].queue queueBitLength:vector ETV
attr autoWarmupFilter false
attr interpolationmode sample-hold
attr recordingmode vector
attr source "warmup(atomic(constant0(packetPushEnded) + sum(packetLength(packetPushStarted)) - sum(packetLength(packetPulled)) - sum(packetLength(packetRemoved)) - sum(packetLength(packetDropped))))"
[...]
681	2575	19.8	0
681	2575	19.9	0
681	2575	20	0
682	6	0.423654796788	368
682	20	0.423866316788	1168
682	624	2.961181629681	1168
682	799	4.522584739373	1168
682	1184	8.238102874019	1168
682	1569	10.53466689051	1168
682	1744	12.218305235029	1168
682	1814	13.372006937162	1168
682	2374	18.207804014207	1168
683	6	0.1	0
683	6	0.2	0
683	6	0.3	0
683	6	0.4	0
683	624	0.5	15360
683	624	0.6	0
683	624	0.7	0
683	624	0.8	0
683	624	0.9	0
683	624	1	0
683	624	1.1	0
683	624	1.2	0
683	624	1.3	0
683	624	1.4	0
683	624	1.5	0
683	624	1.6	0
683	624	1.7	0
683	624	1.8	0
683	624	1.9	0
683	624	2	0
683	624	2.1	0
683	624	2.2	0
683	624	2.3	0
683	624	2.4	0
683	624	2.5	0
683	624	2.6	0
683	624	2.7	0
683	624	2.8	0
683	624	2.9	0
683	799	3	11680
683	799	3.1	0
683	799	3.2	0
683	799	3.3	0
683	799	3.4	0
683	799	3.5	0
683	799	3.6	0
683	799	3.7	0
683	799	3.8	0
683	799	3.9	0
683	799	4	0
683	799	4.1	0
683	799	4.2	0
683	799	4.3	0
683	799	4.4	0
683	799	4.5	0
683	1184	4.6	11680
683	1184	4.7	0
683	1184	4.8	0
683	1184	4.9	0
683	1184	5	0
683	1184	5.1	0
683	1184	5.2	0
683	1184	5.3	0
683	1184	5.4	0
683	1184	5.5	0
683	1184	5.6	0
683	1184	5.7	0
683	1184	5.8	0
683	1184	5.9	0
683	1184	6	0
683	1184	6.1	0
683	1184	6.2	0
683	1184	6.3	0
683	1184	6.4	0
683	1184	6.5	0
683	1184	6.6	0
683	1184	6.7	0
683	1184	6.8	0
683	1184	6.9	0
683	1184	7	0
683	1184	7.1	0
683	1184	7.2	0
683	1184	7.3	0
683	1184	7.4	0
683	1184	7.5	0
683	1184	7.6	0
683	1184	7.7	0
683	1184	7.8	0
683	1184	7.9	0
683	1184	8	0
683	1184	8.1	0
683	1184	8.2	0
683	1569	8.3	11680
683	1569	8.4	0
683	1569	8.5	0
683	1569	8.6	0
683	1569	8.7	0
683	1569	8.8	0
683	1569	8.9	0
683	1569	9	0
683	1569	9.1	0
683	1569	9.2	0
683	1569	9.3	0
683	1569	9.4	0
683	1569	9.5	0
683	1569	9.6	0
683	1569	9.7	0
683	1569	9.8	0
683	1569	9.9	0
683	1569	10	0
683	1569	10.1	0
683	1569	10.2	0
683	1569	10.3	0
683	1569	10.4	0
683	1569	10.5	0
683	1744	10.6	11680
683	1744	10.7	0
683	1744	10.8	0
683	1744	10.9	0
683	1744	11	0
683	1744	11.1	0
683	1744	11.2	0
683	1744	11.3	0
683	1744	11.4	0
683	1744	11.5	0
683	1744	11.6	0
683	1744	11.7	0
683	1744	11.8	0
683	1744	11.9	0
683	1744	12	0
683	1744	12.1	0
683	1744	12.2	0
683	1814	12.3	11680
683	1814	12.4	0
683	1814	12.5	0
683	1814	12.6	0
683	1814	12.7	0
683	1814	12.8	0
683	1814	12.9	0
683	1814	13	0
683	1814	13.1	0
683	1814	13.2	0
683	1814	13.3	0
683	2374	13.4	11680
683	2374	13.5	0
683	2374	13.6	0
683	2374	13.7	0
683	2374	13.8	0
683	2374	13.9	0
683	2374	14	0
683	2374	14.1	0
683	2374	14.2	0
683	2374	14.3	0
683	2374	14.4	0
683	2374	14.5	0
683	2374	14.6	0
683	2374	14.7	0
683	2374	14.8	0
683	2374	14.9	0
683	2374	15	0
683	2374	15.1	0
683	2374	15.2	0
683	2374	15.3	0
683	2374	15.4	0
683	2374	15.5	0
683	2374	15.6	0
683	2374	15.7	0
683	2374	15.8	0
683	2374	15.9	0
683	2374	16	0
683	2374	16.1	0
683	2374	16.2	0
683	2374	16.3	0
683	2374	16.4	0
683	2374	16.5	0
683	2374	16.6	0
683	2374	16.7	0
683	2374	16.8	0
683	2374	16.9	0
683	2374	17	0
683	2374	17.1	0
683	2374	17.2	0
683	2374	17.3	0
683	2374	17.4	0
683	2374	17.5	0
683	2374	17.6	0
683	2374	17.7	0
683	2374	17.8	0
683	2374	17.9	0
683	2374	18	0
683	2374	18.1	0
683	2374	18.2	0
683	2575	18.3	11680
683	2575	18.4	0
683	2575	18.5	0
683	2575	18.6	0
683	2575	18.7	0
683	2575	18.8	0
683	2575	18.9	0
683	2575	19	0
683	2575	19.1	0
683	2575	19.2	0
683	2575	19.3	0
683	2575	19.4	0
683	2575	19.5	0
683	2575	19.6	0
683	2575	19.7	0
683	2575	19.8	0
683	2575	19.9	0
683	2575	20	0
688	7	0.423660556788	64
688	21	0.423878636788	146
688	625	2.961193949681	146
688	800	4.522597059373	146
688	1185	8.238115194019	146
688	1570	10.53467921051	146
688	1745	12.218317555029	146
688	1815	13.372019257162	146
688	2375	18.207816334207	146
689	16	0.423866316788	64
689	59	0.424515596788	74
689	649	2.961619389681	74
689	824	4.523022499373	74
689	1209	8.238540634019	74
689	1594	10.53510465051	74
689	1769	12.218742995029	74
689	1839	13.372444697162	74
689	2399	18.208241774207	74
690	16	0.423866316788	64
690	59	0.424515596788	74
690	649	2.961619389681	74
690	824	4.523022499373	74
690	1209	8.238540634019	74
690	1594	10.53510465051	74
690	1769	12.218742995029	74
690	1839	13.372444697162	74
690	2399	18.208241774207	74
693	6	0.423654796788	46
693	20	0.423866316788	146
693	624	2.961181629681	146
693	799	4.522584739373	146
693	1184	8.238102874019	146
693	1569	10.53466689051	146
693	1744	12.218305235029	146
693	1814	13.372006937162	146
693	2374	18.207804014207	146
705	4	0.423654796788	28
707	3	0.423654796788	108
707	621	2.961181629681	108
707	796	4.522584739373	108
707	1181	8.238102874019	108
707	1566	10.53466689051	108
707	1741	12.218305235029	108
707	1811	13.372006937162	108
707	2371	18.207804014207	108
709	0	0	0
710	0	0	0
711	0	0	0
713	2575	0.1	0
713	2575	0.2	0
713	2575	0.3	0
713	2575	0.4	0
713	2575	0.5	0
713	2575	0.6	0
713	2575	0.7	0
713	2575	0.8	0
713	2575	0.9	0
713	2575	1	0
713	2575	1.1	0
713	2575	1.2	0
713	2575	1.3	0
713	2575	1.4	0
713	2575	1.5	0
713	2575	1.6	0
713	2575	1.7	0
713	2575	1.8	0
713	2575	1.9	0
713	2575	2	0
713	2575	2.1	0
713	2575	2.2	0
713	2575	2.3	0
713	2575	2.4	0
713	2575	2.5	0
713	2575	2.6	0
713	2575	2.7	0
713	2575	2.8	0
713	2575	2.9	0
713	2575	3	0
713	2575	3.1	0
713	2575	3.2	0
713	2575	3.3	0
713	2575	3.4	0
713	2575	3.5	0
713	2575	3.6	0
713	2575	3.7	0
713	2575	3.8	0
713	2575	3.9	0
713	2575	4	0
713	2575	4.1	0
713	2575	4.2	0
713	2575	4.3	0
713	2575	4.4	0
713	2575	4.5	0
713	2575	4.6	0
713	2575	4.7	0
713	2575	4.8	0
713	2575	4.9	0
713	2575	5	0
713	2575	5.1	0
713	2575	5.2	0
713	2575	5.3	0
713	2575	5.4	0
713	2575	5.5	0
713	2575	5.6	0
713	2575	5.7	0
713	2575	5.8	0
713	2575	5.9	0
713	2575	6	0
713	2575	6.1	0
713	2575	6.2	0
713	2575	6.3	0
713	2575	6.4	0
713	2575	6.5	0
713	2575	6.6	0
713	2575	6.7	0
713	2575	6.8	0
713	2575	6.9	0
713	2575	7	0
713	2575	7.1	0
713	2575	7.2	0
713	2575	7.3	0
713	2575	7.4	0
713	2575	7.5	0
713	2575	7.6	0
713	2575	7.7	0
713	2575	7.8	0
713	2575	7.9	0
713	2575	8	0
713	2575	8.1	0
713	2575	8.2	0
713	2575	8.3	0
713	2575	8.4	0
713	2575	8.5	0
713	2575	8.6	0
713	2575	8.7	0
713	2575	8.8	0
713	2575	8.9	0
713	2575	9	0
713	2575	9.1	0
713	2575	9.2	0
713	2575	9.3	0
713	2575	9.4	0
713	2575	9.5	0
713	2575	9.6	0
713	2575	9.7	0
713	2575	9.8	0
713	2575	9.9	0
713	2575	10	0
713	2575	10.1	0
713	2575	10.2	0
713	2575	10.3	0
713	2575	10.4	0
713	2575	10.5	0
713	2575	10.6	0
713	2575	10.7	0
713	2575	10.8	0
713	2575	10.9	0
713	2575	11	0
713	2575	11.1	0
713	2575	11.2	0
713	2575	11.3	0
713	2575	11.4	0
713	2575	11.5	0
713	2575	11.6	0
713	2575	11.7	0
713	2575	11.8	0
713	2575	11.9	0
713	2575	12	0
713	2575	12.1	0
713	2575	12.2	0
713	2575	12.3	0
713	2575	12.4	0
713	2575	12.5	0
713	2575	12.6	0
713	2575	12.7	0
713	2575	12.8	0
713	2575	12.9	0
713	2575	13	0
713	2575	13.1	0
713	2575	13.2	0
713	2575	13.3	0
713	2575	13.4	0
713	2575	13.5	0
713	2575	13.6	0
713	2575	13.7	0
713	2575	13.8	0
713	2575	13.9	0
713	2575	14	0
713	2575	14.1	0
713	2575	14.2	0
713	2575	14.3	0
713	2575	14.4	0
713	2575	14.5	0
713	2575	14.6	0
713	2575	14.7	0
713	2575	14.8	0
713	2575	14.9	0
713	2575	15	0
713	2575	15.1	0
713	2575	15.2	0
713	2575	15.3	0
713	2575	15.4	0
713	2575	15.5	0
713	2575	15.6	0
713	2575	15.7	0
713	2575	15.8	0
713	2575	15.9	0
713	2575	16	0
713	2575	16.1	0
713	2575	16.2	0
713	2575	16.3	0
713	2575	16.4	0
713	2575	16.5	0
713	2575	16.6	0
713	2575	16.7	0
713	2575	16.8	0
713	2575	16.9	0
713	2575	17	0
713	2575	17.1	0
713	2575	17.2	0
713	2575	17.3	0
713	2575	17.4	0
713	2575	17.5	0
713	2575	17.6	0
713	2575	17.7	0
713	2575	17.8	0
713	2575	17.9	0
713	2575	18	0
713	2575	18.1	0
713	2575	18.2	0
713	2575	18.3	0
713	2575	18.4	0
713	2575	18.5	0
713	2575	18.6	0
713	2575	18.7	0
713	2575	18.8	0
713	2575	18.9	0
713	2575	19	0
713	2575	19.1	0
713	2575	19.2	0
713	2575	19.3	0
713	2575	19.4	0
713	2575	19.5	0
713	2575	19.6	0
713	2575	19.7	0
713	2575	19.8	0
713	2575	19.9	0
713	2575	20	0
714	1	0.423654796788	100
714	620	2.961181629681	100
714	795	4.522584739373	100
714	1180	8.238102874019	100
714	1565	10.53466689051	100
714	1740	12.218305235029	100
714	1810	13.372006937162	100
714	2370	18.207804014207	100
717	269	0.623563696397	28
717	283	0.623775216397	128
717	833	4.872238602256	128
717	1288	8.754769208608	128
717	1638	11.300725120818	128
717	2093	15.303469676291	128
717	2303	17.655500146327	128
717	2443	18.709786713821	128
718	281	0.623775216397	46
718	310	0.624212976397	56
718	860	4.872676362256	56
718	1315	8.755206968608	56
718	1665	11.301162880818	56
718	2120	15.303907436291	56
718	2330	17.655937906327	56
718	2470	18.710224473821	56
724	0	0	0
724	0	0	0
724	0	0	0
724	0	0	0
724	0	0	0
724	270	0.623563696397	0
724	284	0.623775216397	0
724	834	4.872238602256	0
724	1289	8.754769208608	0
724	1639	11.300725120818	0
724	2094	15.303469676291	0
724	2304	17.655500146327	0
724	2444	18.709786713821	0
725	0	0	0
725	0	0	0
725	0	0	0
725	0	0	0
725	0	0	0
725	270	0.623563696397	0
725	284	0.623775216397	0
725	834	4.872238602256	0
725	1289	8.754769208608	0
725	1639	11.300725120818	0
725	2094	15.303469676291	0
725	2304	17.655500146327	0
725	2444	18.709786713821	0
726	270	0.623563696397	0
726	284	0.623775216397	0
726	834	4.872238602256	0
726	1289	8.754769208608	0
726	1639	11.300725120818	0
726	2094	15.303469676291	0
726	2304	17.655500146327	0
726	2444	18.709786713821	0
727	270	0.623563696397	368
727	284	0.623775216397	1168
727	834	4.872238602256	1168
727	1289	8.754769208608	1168
727	1639	11.300725120818	1168
727	2094	15.303469676291	1168
727	2304	17.655500146327	1168
727	2444	18.709786713821	1168
728	270	0.1	0
728	270	0.2	0
728	270	0.3	0
728	270	0.4	0
728	270	0.5	0
728	270	0.6	0
728	834	0.7	15360
728	834	0.8	0
728	834	0.9	0
728	834	1	0
728	834	1.1	0
728	834	1.2	0
728	834	1.3	0
728	834	1.4	0
728	834	1.5	0
728	834	1.6	0
728	834	1.7	0
728	834	1.8	0
728	834	1.9	0
728	834	2	0
728	834	2.1	0
728	834	2.2	0
728	834	2.3	0
728	834	2.4	0
728	834	2.5	0
728	834	2.6	0
728	834	2.7	0
728	834	2.8	0
728	834	2.9	0
728	834	3	0
728	834	3.1	0
728	834	3.2	0
728	834	3.3	0
728	834	3.4	0
728	834	3.5	0
728	834	3.6	0
728	834	3.7	0
728	834	3.8	0
728	834	3.9	0
728	834	4	0
728	834	4.1	0
728	834	4.2	0
728	834	4.3	0
728	834	4.4	0
728	834	4.5	0
728	834	4.6	0
728	834	4.7	0
728	834	4.8	0
728	1289	4.9	11680
728	1289	5	0
728	1289	5.1	0
728	1289	5.2	0
728	1289	5.3	0
728	1289	5.4	0
728	1289	5.5	0
728	1289	5.6	0
728	1289	5.7	0
728	1289	5.8	0
728	1289	5.9	0
728	1289	6	0
728	1289	6.1	0
728	1289	6.2	0
728	1289	6.3	0
728	1289	6.4	0
728	1289	6.5	0
728	1289	6.6	0
728	1289	6.7	0
728	1289	6.8	0
728	1289	6.9	0
728	1289	7	0
728	1289	7.1	0
728	1289	7.2	0
728	1289	7.3	0
728	1289	7.4	0
728	1289	7.5	0
728	1289	7.6	0
728	1289	7.7	0
728	1289	7.8	0
728	1289	7.9	0
728	1289	8	0
728	1289	8.1	0
728	1289	8.2	0
728	1289	8.3	0
728	1289	8.4	0
728	1289	8.5	0
728	1289	8.6	0
728	1289	8.7	0
728	1639	8.8	11680
728	1639	8.9	0
728	1639	9	0
728	1639	9.1	0
728	1639	9.2	0
728	1639	9.3	0
728	1639	9.4	0
728	1639	9.5	0
728	1639	9.6	0
728	1639	9.7	0
728	1639	9.8	0
728	1639	9.9	0
728	1639	10	0
728	1639	10.1	0
728	1639	10.2	0
728	1639	10.3	0
728	1639	10.4	0
728	1639	10.5	0
728	1639	10.6	0
728	1639	10.7	0
728	1639	10.8	0
728	1639	10.9	0
728	1639	11	0
728	1639	11.1	0
728	1639	11.2	0
728	1639	11.3	0
728	2094	11.4	11680
728	2094	11.5	0
728	2094	11.6	0
728	2094	11.7	0
728	2094	11.8	0
728	2094	11.9	0
728	2094	12	0
728	2094	12.1	0
728	2094	12.2	0
728	2094	12.3	0
728	2094	12.4	0
728	2094	12.5	0
728	2094	12.6	0
728	2094	12.7	0
728	2094	12.8	0
728	2094	12.9	0
728	2094	13	0
728	2094	13.1	0
728	2094	13.2	0
728	2094	13.3	0
728	2094	13.4	0
728	2094	13.5	0
728	2094	13.6	0
728	2094	13.7	0
728	2094	13.8	0
728	2094	13.9	0
728	2094	14	0
728	2094	14.1	0
728	2094	14.2	0
728	2094	14.3	0
728	2094	14.4	0
728	2094	14.5	0
728	2094	14.6	0
728	2094	14.7	0
728	2094	14.8	0
728	2094	14.9	0
728	2094	15	0
728	2094	15.1	0
728	2094	15.2	0
728	2094	15.3	0
728	2304	15.4	11680
728	2304	15.5	0
728	2304	15.6	0
728	2304	15.7	0
728	2304	15.8	0
728	2304	15.9	0
728	2304	16	0
728	2304	16.1	0
728	2304	16.2	0
728	2304	16.3	0
728	2304	16.4	0
728	2304	16.5	0
728	2304	16.6	0
728	2304	16.7	0
728	2304	16.8	0
728	2304	16.9	0
728	2304	17	0
728	2304	17.1	0
728	2304	17.2	0
728	2304	17.3	0
728	2304	17.4	0
728	2304	17.5	0
728	2304	17.6	0
728	2444	17.7	11680
728	2444	17.8	0
728	2444	17.9	0
728	2444	18	0
728	2444	18.1	0
728	2444	18.2	0
728	2444	18.3	0
728	2444	18.4	0
728	2444	18.5	0
728	2444	18.6	0
728	2444	18.7	0
728	2575	18.8	11680
728	2575	18.9	0
728	2575	19	0
728	2575	19.1	0
728	2575	19.2	0
728	2575	19.3	0
728	2575	19.4	0
728	2575	19.5	0
728	2575	19.6	0
728	2575	19.7	0
728	2575	19.8	0
728	2575	19.9	0
728	2575	20	0
729	270	0.623563696397	368
729	284	0.623775216397	1168
729	834	4.872238602256	1168
729	1289	8.754769208608	1168
729	1639	11.300725120818	1168
729	2094	15.303469676291	1168
729	2304	17.655500146327	1168
729	2444	18.709786713821	1168
730	270	0.1	0
730	270	0.2	0
730	270	0.3	0
730	270	0.4	0
730	270	0.5	0
730	270	0.6	0
730	834	0.7	15360
730	834	0.8	0
730	834	0.9	0
730	834	1	0
730	834	1.1	0
730	834	1.2	0
730	834	1.3	0
730	834	1.4	0
730	834	1.5	0
730	834	1.6	0
730	834	1.7	0
730	834	1.8	0
730	834	1.9	0
730	834	2	0
730	834	2.1	0
730	834	2.2	0
730	834	2.3	0
730	834	2.4	0
730	834	2.5	0
730	834	2.6	0
730	834	2.7	0
730	834	2.8	0
730	834	2.9	0
730	834	3	0
730	834	3.1	0
730	834	3.2	0
730	834	3.3	0
730	834	3.4	0
730	834	3.5	0
730	834	3.6	0
730	834	3.7	0
730	834	3.8	0
730	834	3.9	0
730	834	4	0
730	834	4.1	0
730	834	4.2	0
730	834	4.3	0
730	834	4.4	0
730	834	4.5	0
730	834	4.6	0
730	834	4.7	0
730	834	4.8	0
730	1289	4.9	11680
730	1289	5	0
730	1289	5.1	0
730	1289	5.2	0
730	1289	5.3	0
730	1289	5.4	0
730	1289	5.5	0
730	1289	5.6	0
730	1289	5.7	0
730	1289	5.8	0
730	1289	5.9	0
730	1289	6	0
730	1289	6.1	0
730	1289	6.2	0
730	1289	6.3	0
730	1289	6.4	0
730	1289	6.5	0
730	1289	6.6	0
730	1289	6.7	0
730	1289	6.8	0
730	1289	6.9	0
730	1289	7	0
730	1289	7.1	0
730	1289	7.2	0
730	1289	7.3	0
730	1289	7.4	0
730	1289	7.5	0
730	1289	7.6	0
730	1289	7.7	0
730	1289	7.8	0
730	1289	7.9	0
730	1289	8	0
730	1289	8.1	0
730	1289	8.2	0
730	1289	8.3	0
730	1289	8.4	0
730	1289	8.5	0
730	1289	8.6	0
730	1289	8.7	0
730	1639	8.8	11680
730	1639	8.9	0
730	1639	9	0
730	1639	9.1	0
730	1639	9.2	0
730	1639	9.3	0
730	1639	9.4	0
730	1639	9.5	0
730	1639	9.6	0
730	1639	9.7	0
730	1639	9.8	0
730	1639	9.9	0
730	1639	10	0
730	1639	10.1	0
730	1639	10.2	0
730	1639	10.3	0
730	1639	10.4	0
730	1639	10.5	0
730	1639	10.6	0
730	1639	10.7	0
730	1639	10.8	0
730	1639	10.9	0
730	1639	11	0
730	1639	11.1	0
730	1639	11.2	0
730	1639	11.3	0
730	2094	11.4	11680
730	2094	11.5	0
730	2094	11.6	0
730	2094	11.7	0
730	2094	11.8	0
730	2094	11.9	0
730	2094	12	0
730	2094	12.1	0
730	2094	12.2	0
730	2094	12.3	0
730	2094	12.4	0
730	2094	12.5	0
730	2094	12.6	0
730	2094	12.7	0
730	2094	12.8	0
730	2094	12.9	0
730	2094	13	0
730	2094	13.1	0
730	2094	13.2	0
730	2094	13.3	0
730	2094	13.4	0
730	2094	13.5	0
730	2094	13.6	0
730	2094	13.7	0
730	2094	13.8	0
730	2094	13.9	0
730	2094	14	0
730	2094	14.1	0
730	2094	14.2	0
730	2094	14.3	0
730	2094	14.4	0
730	2094	14.5	0
730	2094	14.6	0
730	2094	14.7	0
730	2094	14.8	0
730	2094	14.9	0
730	2094	15	0
730	2094	15.1	0
730	2094	15.2	0
730	2094	15.3	0
730	2304	15.4	11680
730	2304	15.5	0
730	2304	15.6	0
730	2304	15.7	0
730	2304	15.8	0
730	2304	15.9	0
730	2304	16	0
730	2304	16.1	0
730	2304	16.2	0
730	2304	16.3	0
730	2304	16.4	0
730	2304	16.5	0
730	2304	16.6	0
730	2304	16.7	0
730	2304	16.8	0
730	2304	16.9	0
730	2304	17	0
730	2304	17.1	0
730	2304	17.2	0
730	2304	17.3	0
730	2304	17.4	0
730	2304	17.5	0
730	2304	17.6	0
730	2444	17.7	11680
730	2444	17.8	0
730	2444	17.9	0
730	2444	18	0
730	2444	18.1	0
730	2444	18.2	0
730	2444	18.3	0
730	2444	18.4	0
730	2444	18.5	0
730	2444	18.6	0
730	2444	18.7	0
730	2575	18.8	11680
730	2575	18.9	0
730	2575	19	0
730	2575	19.1	0
730	2575	19.2	0
730	2575	19.3	0
730	2575	19.4	0
730	2575	19.5	0
730	2575	19.6	0
730	2575	19.7	0
730	2575	19.8	0
730	2575	19.9	0
730	2575	20	0
735	271	0.623569456397	64
735	285	0.623787536397	146
735	835	4.872250922256	146
735	1290	8.754781528608	146
735	1640	11.300737440818	146
735	2095	15.303481996291	146
735	2305	17.655512466327	146
735	2445	18.709799033821	146
736	280	0.623775216397	64
736	309	0.624212976397	74
736	859	4.872676362256	74
736	1314	8.755206968608	74
736	1664	11.301162880818	74
736	2119	15.303907436291	74
736	2329	17.655937906327	74
736	2469	18.710224473821	74
737	280	0.623775216397	64
737	309	0.624212976397	74
737	859	4.872676362256	74
737	1314	8.755206968608	74
737	1664	11.301162880818	74
737	2119	15.303907436291	74
737	2329	17.655937906327	74
737	2469	18.710224473821	74
740	270	0.623563696397	46
740	284	0.623775216397	146
740	834	4.872238602256	146
740	1289	8.754769208608	146
740	1639	11.300725120818	146
740	2094	15.303469676291	146
740	2304	17.655500146327	146
740	2444	18.709786713821	146
752	268	0.623563696397	28
754	267	0.623563696397	108
754	831	4.872238602256	108
754	1286	8.754769208608	108
754	1636	11.300725120818	108
754	2091	15.303469676291	108
754	2301	17.655500146327	108
754	2441	18.709786713821	108
756	0	0	0
757	0	0	0
758	0	0	0
760	2575	0.1	0
760	2575	0.2	0
760	2575	0.3	0
760	2575	0.4	0
760	2575	0.5	0
760	2575	0.6	0
760	2575	0.7	0
760	2575	0.8	0
760	2575	0.9	0
760	2575	1	0
760	2575	1.1	0
760	2575	1.2	0
760	2575	1.3	0
760	2575	1.4	0
760	2575	1.5	0
760	2575	1.6	0
760	2575	1.7	0
760	2575	1.8	0
760	2575	1.9	0
760	2575	2	0
760	2575	2.1	0
760	2575	2.2	0
760	2575	2.3	0
760	2575	2.4	0
760	2575	2.5	0
760	2575	2.6	0
760	2575	2.7	0
760	2575	2.8	0
760	2575	2.9	0
760	2575	3	0
760	2575	3.1	0
760	2575	3.2	0
760	2575	3.3	0
760	2575	3.4	0
760	2575	3.5	0
760	2575	3.6	0
760	2575	3.7	0
760	2575	3.8	0
760	2575	3.9	0
760	2575	4	0
760	2575	4.1	0
760	2575	4.2	0
760	2575	4.3	0
760	2575	4.4	0
760	2575	4.5	0
760	2575	4.6	0
760	2575	4.7	0
760	2575	4.8	0
760	2575	4.9	0
760	2575	5	0
760	2575	5.1	0
760	2575	5.2	0
760	2575	5.3	0
760	2575	5.4	0
760	2575	5.5	0
760	2575	5.6	0
760	2575	5.7	0
760	2575	5.8	0
760	2575	5.9	0
760	2575	6	0
760	2575	6.1	0
760	2575	6.2	0
760	2575	6.3	0
760	2575	6.4	0
760	2575	6.5	0
760	2575	6.6	0
760	2575	6.7	0
760	2575	6.8	0
760	2575	6.9	0
760	2575	7	0
760	2575	7.1	0
760	2575	7.2	0
760	2575	7.3	0
760	2575	7.4	0
760	2575	7.5	0
760	2575	7.6	0
760	2575	7.7	0
760	2575	7.8	0
760	2575	7.9	0
760	2575	8	0
760	2575	8.1	0
760	2575	8.2	0
760	2575	8.3	0
760	2575	8.4	0
760	2575	8.5	0
760	2575	8.6	0
760	2575	8.7	0
760	2575	8.8	0
760	2575	8.9	0
760	2575	9	0
760	2575	9.1	0
760	2575	9.2	0
760	2575	9.3	0
760	2575	9.4	0
760	2575	9.5	0
760	2575	9.6	0
760	2575	9.7	0
760	2575	9.8	0
760	2575	9.9	0
760	2575	10	0
760	2575	10.1	0
760	2575	10.2	0
760	2575	10.3	0
760	2575	10.4	0
760	2575	10.5	0
760	2575	10.6	0
760	2575	10.7	0
760	2575	10.8	0
760	2575	10.9	0
760	2575	11	0
760	2575	11.1	0
760	2575	11.2	0
760	2575	11.3	0
760	2575	11.4	0
760	2575	11.5	0
760	2575	11.6	0
760	2575	11.7	0
760	2575	11.8	0
760	2575	11.9	0
760	2575	12	0
760	2575	12.1	0
760	2575	12.2	0
760	2575	12.3	0
760	2575	12.4	0
760	2575	12.5	0
760	2575	12.6	0
760	2575	12.7	0
760	2575	12.8	0
760	2575	12.9	0
760	2575	13	0
760	2575	13.1	0
760	2575	13.2	0
760	2575	13.3	0
760	2575	13.4	0
760	2575	13.5	0
760	2575	13.6	0
760	2575	13.7	0
760	2575	13.8	0
760	2575	13.9	0
760	2575	14	0
760	2575	14.1	0
760	2575	14.2	0
760	2575	14.3	0
760	2575	14.4	0
760	2575	14.5	0
760	2575	14.6	0
760	2575	14.7	0
760	2575	14.8	0
760	2575	14.9	0
760	2575	15	0
760	2575	15.1	0
760	2575	15.2	0
760	2575	15.3	0
760	2575	15.4	0
760	2575	15.5	0
760	2575	15.6	0
760	2575	15.7	0
760	2575	15.8	0
760	2575	15.9	0
760	2575	16	0
760	2575	16.1	0
760	2575	16.2	0
760	2575	16.3	0
760	2575	16.4	0
760	2575	16.5	0
760	2575	16.6	0
760	2575	16.7	0
760	2575	16.8	0
760	2575	16.9	0
760	2575	17	0
760	2575	17.1	0
760	2575	17.2	0
760	2575	17.3	0
760	2575	17.4	0
760	2575	17.5	0
760	2575	17.6	0
760	2575	17.7	0
760	2575	17.8	0
760	2575	17.9	0
760	2575	18	0
760	2575	18.1	0
760	2575	18.2	0
760	2575	18.3	0
760	2575	18.4	0
760	2575	18.5	0
760	2575	18.6	0
760	2575	18.7	0
760	2575	18.8	0
760	2575	18.9	0
760	2575	19	0
760	2575	19.1	0
760	2575	19.2	0
760	2575	19.3	0
760	2575	19.4	0
760	2575	19.5	0
760	2575	19.6	0
760	2575	19.7	0
760	2575	19.8	0
760	2575	19.9	0
760	2575	20	0
761	265	0.623563696397	100
761	830	4.872238602256	100
761	1285	8.754769208608	100
761	1635	11.300725120818	100
761	2090	15.303469676291	100
761	2300	17.655500146327	100
761	2440	18.709786713821	100

