version 3
run General-0-20250107-22:09:06-51616
attr configname General
attr datetime 20250107-22:09:06
attr datetimef 20250107-220906
attr experiment General
attr inifile omnetpp.ini
attr iterationvars ""
attr iterationvarsd ""
attr iterationvarsf ""
attr measurement ""
attr network IoTCommunication
attr processid 51616
attr repetition 0
attr replication #0
attr resultdir results
attr runnumber 0
attr seedset 0
config image-path ../../inet4.5/images
config network IoTCommunication
config sim-time-limit 20s
config *.satellite.mobility.typename StationaryMobility
config *.satellite.mobility.initialX 400m
config *.satellite.mobility.initialY 100m
config *.satellite.mobility.initialZ 500km
config *.baseStation.mobility.typename StationaryMobility
config *.baseStation.mobility.initialX 400m
config *.baseStation.mobility.initialY 300m
config *.baseStation.mobility.initialZ 0m
config *.iotDevice[*].mobility.typename StationaryMobility
config *.iotDevice[0].mobility.initialX 350m
config *.iotDevice[0].mobility.initialY 500m
config *.iotDevice[0].mobility.initialZ 0m
config *.iotDevice[1].mobility.initialX 450m
config *.iotDevice[1].mobility.initialY 500m
config *.iotDevice[1].mobility.initialZ 0m
config *.iotDevice[0].numApps 1
config *.iotDevice[0].app[0].typename UdpBasicApp
config *.iotDevice[0].app[0].destAddresses "\"satellite\""
config *.iotDevice[0].app[0].destPort 12345
config *.iotDevice[0].app[0].startTime "uniform(0s, 1s)"
config *.iotDevice[0].app[0].stopTime 20s
config *.iotDevice[0].app[0].messageLength 100B
config *.iotDevice[0].app[0].sendInterval 2s
config *.iotDevice[1].numApps 1
config *.iotDevice[1].app[0].typename UdpBasicApp
config *.iotDevice[1].app[0].destAddresses "\"baseStation\""
config *.iotDevice[1].app[0].destPort 12346
config *.iotDevice[1].app[0].startTime "uniform(0s, 1s)"
config *.iotDevice[1].app[0].stopTime 20s
config *.iotDevice[1].app[0].messageLength 200B
config *.iotDevice[1].app[0].sendInterval 3s
config *.configurator.autoassignAddresses true
config **.recordScalar false
config **.recordVector false
config *.iotDevice[*].app[*].packetSent true
config *.iotDevice[*].app[*].packetReceived true
config *.iotDevice[*].app[*].packetLoss true
config *.iotDevice[*].app[*].throughput true
config *.iotDevice[*].app[*].endToEndDelay:vector true
config *.iotDevice[*].app[*].throughput:vector true
config *.satellite.ethg[*].queueingTime true
config *.baseStation.ethg[*].queueingTime true
config **.app[*].recordScalar true
config **.app[*].recordVector true

par IoTCommunication.iotDevice[0].ethg$o[0].channel typename "\"ethernetChannel\""
par IoTCommunication.iotDevice[0].ethg$o[0].channel disabled false
attr mutable ""
par IoTCommunication.iotDevice[0].ethg$o[0].channel delay 0.0001s
attr mutable ""
attr unit s
par IoTCommunication.iotDevice[0].ethg$o[0].channel datarate 1e+08bps
attr mutable ""
attr unit bps
par IoTCommunication.iotDevice[0].ethg$o[0].channel ber 0
attr mutable ""
par IoTCommunication.iotDevice[0].ethg$o[0].channel per 0
attr mutable ""
par IoTCommunication.baseStation.ethg$o[0].channel typename "\"ethernetChannel\""
par IoTCommunication.baseStation.ethg$o[0].channel disabled false
attr mutable ""
par IoTCommunication.baseStation.ethg$o[0].channel delay 0.0001s
attr mutable ""
attr unit s
par IoTCommunication.baseStation.ethg$o[0].channel datarate 1e+08bps
attr mutable ""
attr unit bps
par IoTCommunication.baseStation.ethg$o[0].channel ber 0
attr mutable ""
par IoTCommunication.baseStation.ethg$o[0].channel per 0
attr mutable ""
par IoTCommunication.iotDevice[1].ethg$o[0].channel typename "\"ethernetChannel\""
par IoTCommunication.iotDevice[1].ethg$o[0].channel disabled false
attr mutable ""
par IoTCommunication.iotDevice[1].ethg$o[0].channel delay 0.0001s
attr mutable ""
attr unit s
par IoTCommunication.iotDevice[1].ethg$o[0].channel datarate 1e+08bps
attr mutable ""
attr unit bps
par IoTCommunication.iotDevice[1].ethg$o[0].channel ber 0
attr mutable ""
par IoTCommunication.iotDevice[1].ethg$o[0].channel per 0
attr mutable ""
par IoTCommunication.baseStation.ethg$o[1].channel typename "\"ethernetChannel\""
par IoTCommunication.baseStation.ethg$o[1].channel disabled false
attr mutable ""
par IoTCommunication.baseStation.ethg$o[1].channel delay 0.0001s
attr mutable ""
attr unit s
par IoTCommunication.baseStation.ethg$o[1].channel datarate 1e+08bps
attr mutable ""
attr unit bps
par IoTCommunication.baseStation.ethg$o[1].channel ber 0
attr mutable ""
par IoTCommunication.baseStation.ethg$o[1].channel per 0
attr mutable ""
par IoTCommunication.baseStation.ethg$o[2].channel typename "\"ethernetChannel\""
par IoTCommunication.baseStation.ethg$o[2].channel disabled false
attr mutable ""
par IoTCommunication.baseStation.ethg$o[2].channel delay 0.0001s
attr mutable ""
attr unit s
par IoTCommunication.baseStation.ethg$o[2].channel datarate 1e+08bps
attr mutable ""
attr unit bps
par IoTCommunication.baseStation.ethg$o[2].channel ber 0
attr mutable ""
par IoTCommunication.baseStation.ethg$o[2].channel per 0
attr mutable ""
par IoTCommunication.satellite.ethg$o[0].channel typename "\"ethernetChannel\""
par IoTCommunication.satellite.ethg$o[0].channel disabled false
attr mutable ""
par IoTCommunication.satellite.ethg$o[0].channel delay 0.0001s
attr mutable ""
attr unit s
par IoTCommunication.satellite.ethg$o[0].channel datarate 1e+08bps
attr mutable ""
attr unit bps
par IoTCommunication.satellite.ethg$o[0].channel ber 0
attr mutable ""
par IoTCommunication.satellite.ethg$o[0].channel per 0
attr mutable ""
par IoTCommunication.satellite.ethg$i[0].channel typename "\"ned.IdealChannel\""
par IoTCommunication.satellite.eth[0].phys$o.channel typename "\"ned.IdealChannel\""
par IoTCommunication.satellite.mobility typename "\"inet.mobility.static.StationaryMobility\""
par IoTCommunication.satellite.mobility subjectModule "\"^\""
par IoTCommunication.satellite.mobility coordinateSystemModule "\"\""
par IoTCommunication.satellite.mobility displayStringTextFormat "\"p: %p\\nv: %v\""
attr mutable ""
par IoTCommunication.satellite.mobility updateDisplayString true
par IoTCommunication.satellite.mobility constraintAreaMinX "-inf m"
attr unit m
par IoTCommunication.satellite.mobility constraintAreaMinY "-inf m"
attr unit m
par IoTCommunication.satellite.mobility constraintAreaMinZ "-inf m"
attr unit m
par IoTCommunication.satellite.mobility constraintAreaMaxX "inf m"
attr unit m
par IoTCommunication.satellite.mobility constraintAreaMaxY "inf m"
attr unit m
par IoTCommunication.satellite.mobility constraintAreaMaxZ "inf m"
attr unit m
par IoTCommunication.satellite.mobility initialX 400m
attr unit m
par IoTCommunication.satellite.mobility initialY 100m
attr unit m
par IoTCommunication.satellite.mobility initialZ 500000m
attr unit m
par IoTCommunication.satellite.mobility initialLatitude "nan deg"
attr unit deg
par IoTCommunication.satellite.mobility initialLongitude "nan deg"
attr unit deg
par IoTCommunication.satellite.mobility initialAltitude 0m
attr unit m
par IoTCommunication.satellite.mobility initialHeading 0deg
attr unit deg
par IoTCommunication.satellite.mobility initialElevation 0deg
attr unit deg
par IoTCommunication.satellite.mobility initialBank 0deg
attr unit deg
par IoTCommunication.satellite.mobility initFromDisplayString true
par IoTCommunication.satellite.mobility updateFromDisplayString true
par IoTCommunication.satellite.interfaceTable typename "\"inet.networklayer.common.InterfaceTable\""
par IoTCommunication.satellite.interfaceTable displayAddresses false
par IoTCommunication.satellite.cb typename "\"inet.common.MessageDispatcher\""
par IoTCommunication.satellite.cb displayStringTextFormat "\"processed %p pk (%l)\""
par IoTCommunication.satellite.cb forwardServiceRegistration true
par IoTCommunication.satellite.cb forwardProtocolRegistration true
par IoTCommunication.satellite.bl typename "\"inet.common.MessageDispatcher\""
par IoTCommunication.satellite.bl displayStringTextFormat "\"processed %p pk (%l)\""
par IoTCommunication.satellite.bl forwardServiceRegistration true
par IoTCommunication.satellite.bl forwardProtocolRegistration true
par IoTCommunication.satellite.ethernet typename "\"inet.linklayer.ethernet.basic.EthernetEncapsulation\""
par IoTCommunication.satellite.ethernet registerProtocol true
par IoTCommunication.satellite.ethernet interfaceTableModule "\"IoTCommunication.satellite.interfaceTable\""
par IoTCommunication.satellite.ethernet fcsMode "\"declared\""
attr enum declared,computed
par IoTCommunication.satellite.ethernet stopOperationExtraTime -1s
attr unit s
par IoTCommunication.satellite.ethernet stopOperationTimeout 2s
attr unit s
scalar IoTCommunication.satellite.ethernet pauseSent:count 0
attr recordingmode count
attr title "pause sent, count"
scalar IoTCommunication.satellite.ethernet pauseSent:sum 0
attr recordingmode sum
attr title "pause sent, sum"
scalar IoTCommunication.satellite.ethernet decapPk:count 11
attr interpolationmode none
attr recordingmode count
attr source decapPk
attr title "packets decapsulated, count"
scalar IoTCommunication.satellite.ethernet decapPk:sum(packetBytes) 1326
attr interpolationmode none
attr recordingmode sum(packetBytes)
attr source decapPk
attr title "packets decapsulated, sum(packetBytes)"
scalar IoTCommunication.satellite.ethernet encapPk:count 11
attr interpolationmode none
attr recordingmode count
attr source encapPk
attr title "packets encapsulated, count"
scalar IoTCommunication.satellite.ethernet encapPk:sum(packetBytes) 588
attr interpolationmode none
attr recordingmode sum(packetBytes)
attr source encapPk
attr title "packets encapsulated, sum(packetBytes)"
par IoTCommunication.satellite.li typename "\"inet.common.MessageDispatcher\""
par IoTCommunication.satellite.li displayStringTextFormat "\"processed %p pk (%l)\""
par IoTCommunication.satellite.li forwardServiceRegistration true
par IoTCommunication.satellite.li forwardProtocolRegistration true
par IoTCommunication.satellite.lo[0].upperLayerIn.channel typename "\"ned.IdealChannel\""
par IoTCommunication.satellite.lo[0].lo.upperLayerOut.channel typename "\"ned.IdealChannel\""
par IoTCommunication.satellite.lo[0].lo typename "\"inet.linklayer.loopback.Loopback\""
par IoTCommunication.satellite.lo[0].lo interfaceTableModule "\"IoTCommunication.satellite.interfaceTable\""
par IoTCommunication.satellite.lo[0].lo mtu 4470B
attr unit B
scalar IoTCommunication.satellite.lo[0].lo rcvdPkFromHl:count 0
attr interpolationmode none
attr recordingmode count
attr source packetReceivedFromUpper
attr title "packets received from higher layer, count"
scalar IoTCommunication.satellite.lo[0].lo rcvdPkFromHl:sum(packetBytes) 0
attr interpolationmode none
attr recordingmode sum(packetBytes)
attr source packetReceivedFromUpper
attr title "packets received from higher layer, sum(packetBytes)"
scalar IoTCommunication.satellite.lo[0].lo passedUpPk:count 0
attr interpolationmode none
attr recordingmode count
attr source packetSentToUpper
attr title "packets passed to higher layer, count"
scalar IoTCommunication.satellite.lo[0].lo passedUpPk:sum(packetBytes) 0
attr interpolationmode none
attr recordingmode sum(packetBytes)
attr source packetSentToUpper
attr title "packets passed to higher layer, sum(packetBytes)"
par IoTCommunication.satellite.lo[0] typename "\"inet.linklayer.loopback.LoopbackInterface\""
par IoTCommunication.satellite.lo[0] displayStringTextFormat "\"%a (%i)\\n%m\""
par IoTCommunication.satellite.lo[0] recordPcap false
par IoTCommunication.satellite.lo[0] numPcapRecorders 0
par IoTCommunication.satellite.lo[0] interfaceTableModule "\"IoTCommunication.satellite.interfaceTable\""
scalar IoTCommunication.satellite.lo[0] packetDropInterfaceDown:count 0
attr interpolationmode none
attr recordingmode count
attr source packetDropReasonIsInterfaceDown(packetDropped)
attr title "packet drops: interface down, count"
scalar IoTCommunication.satellite.lo[0] packetDropInterfaceDown:sum(packetBytes) 0
attr interpolationmode none
attr recordingmode sum(packetBytes)
attr source packetDropReasonIsInterfaceDown(packetDropped)
attr title "packet drops: interface down, sum(packetBytes)"
scalar IoTCommunication.satellite.lo[0] packetDropNoCarrier:count 0
attr interpolationmode none
attr recordingmode count
attr source packetDropReasonIsNoCarrier(packetDropped)
attr title "packet drops: no carrier, count"
scalar IoTCommunication.satellite.lo[0] packetDropNoCarrier:sum(packetBytes) 0
attr interpolationmode none
attr recordingmode sum(packetBytes)
attr source packetDropReasonIsNoCarrier(packetDropped)
attr title "packet drops: no carrier, sum(packetBytes)"
par IoTCommunication.satellite.eth[0].mac.phys$o.channel typename "\"ned.IdealChannel\""
par IoTCommunication.satellite.eth[0].phys$i.channel typename "\"ned.IdealChannel\""
par IoTCommunication.satellite.eth[0].upperLayerIn.channel typename "\"ned.IdealChannel\""
par IoTCommunication.satellite.eth[0].mac.upperLayerOut.channel typename "\"ned.IdealChannel\""
par IoTCommunication.satellite.eth[0].queue typename "\"inet.linklayer.ethernet.common.EthernetQueue\""
par IoTCommunication.satellite.eth[0].queue displayStringTextFormat "\"contains %p pk (%l) pushed %u\\npulled %o removed %r dropped %d\""
par IoTCommunication.satellite.eth[0].queue packetCapacity 1000
par IoTCommunication.satellite.eth[0].queue dataCapacity -1b
attr unit b
par IoTCommunication.satellite.eth[0].queue dropperClass "\"inet::queueing::PacketAtCollectionEndDropper\""
par IoTCommunication.satellite.eth[0].queue comparatorClass "\"inet::EthernetFrameTypeComparator\""
par IoTCommunication.satellite.eth[0].queue bufferModule "\"\""
scalar IoTCommunication.satellite.eth[0].queue queueLength:last 0
attr autoWarmupFilter false
attr interpolationmode sample-hold
attr recordingmode last
attr source "warmup(atomic(constant0(packetPushEnded) + count(packetPushStarted) - count(packetPulled) - count(packetRemoved) - count(packetDropped)))"
attr title "queue length, last"
attr unit pk
scalar IoTCommunication.satellite.eth[0].queue queueLength:max 0
attr autoWarmupFilter false
attr interpolationmode sample-hold
attr recordingmode max
attr source "warmup(atomic(constant0(packetPushEnded) + count(packetPushStarted) - count(packetPulled) - count(packetRemoved) - count(packetDropped)))"
attr title "queue length, max"
attr unit pk
scalar IoTCommunication.satellite.eth[0].queue queueLength:timeavg 0
attr autoWarmupFilter false
attr interpolationmode sample-hold
attr recordingmode timeavg
attr source "warmup(atomic(constant0(packetPushEnded) + count(packetPushStarted) - count(packetPulled) - count(packetRemoved) - count(packetDropped)))"
attr title "queue length, timeavg"
attr unit pk
scalar IoTCommunication.satellite.eth[0].queue queueBitLength:last 0
attr autoWarmupFilter false
attr interpolationmode sample-hold
attr recordingmode last
attr source "warmup(atomic(constant0(packetPushEnded) + sum(packetLength(packetPushStarted)) - sum(packetLength(packetPulled)) - sum(packetLength(packetRemoved)) - sum(packetLength(packetDropped))))"
attr title "queue bit length, last"
attr unit b
scalar IoTCommunication.satellite.eth[0].queue queueBitLength:max 0
attr autoWarmupFilter false
attr interpolationmode sample-hold
attr recordingmode max
attr source "warmup(atomic(constant0(packetPushEnded) + sum(packetLength(packetPushStarted)) - sum(packetLength(packetPulled)) - sum(packetLength(packetRemoved)) - sum(packetLength(packetDropped))))"
attr title "queue bit length, max"
attr unit b
scalar IoTCommunication.satellite.eth[0].queue queueBitLength:timeavg 0
attr autoWarmupFilter false
attr interpolationmode sample-hold
attr recordingmode timeavg
attr source "warmup(atomic(constant0(packetPushEnded) + sum(packetLength(packetPushStarted)) - sum(packetLength(packetPulled)) - sum(packetLength(packetRemoved)) - sum(packetLength(packetDropped))))"
attr title "queue bit length, timeavg"
attr unit b
statistic IoTCommunication.satellite.eth[0].queue queueingTime:histogram
field count 11
field mean 0
field stddev 0
field min 0
field max 0
field sum 0
field sqrsum 0
attr interpolationmode none
attr recordingmode histogram
attr source queueingTime(packetPulled)
attr title "queueing times"
attr unit s
bin	-inf	0
bin	-0.5	0
bin	-0.48	0
bin	-0.46	0
bin	-0.44	0
bin	-0.42	0
bin	-0.4	0
bin	-0.38	0
bin	-0.36	0
bin	-0.34	0
bin	-0.32	0
bin	-0.3	0
bin	-0.28	0
bin	-0.26	0
bin	-0.24	0
bin	-0.22	0
bin	-0.2	0
bin	-0.18	0
bin	-0.16	0
bin	-0.14	0
bin	-0.12	0
bin	-0.1	0
bin	-0.08	0
bin	-0.06	0
bin	-0.04	0
bin	-0.02	0
bin	0	11
bin	0.02	0
bin	0.04	0
bin	0.06	0
bin	0.08	0
bin	0.1	0
bin	0.12	0
bin	0.14	0
bin	0.16	0
bin	0.18	0
bin	0.2	0
bin	0.22	0
bin	0.24	0
bin	0.26	0
bin	0.28	0
bin	0.3	0
bin	0.32	0
bin	0.34	0
bin	0.36	0
bin	0.38	0
bin	0.4	0
bin	0.42	0
bin	0.44	0
bin	0.46	0
bin	0.48	0
bin	0.5	0
scalar IoTCommunication.satellite.eth[0].queue outgoingPackets:count 11
attr recordingmode count
attr source packetPulled
attr title "outgoing packets, count"
attr unit pk
scalar IoTCommunication.satellite.eth[0].queue outgoingPacketLengths:sum 6288
attr interpolationmode none
attr recordingmode sum
attr source packetLength(packetPulled)
attr title "outgoing packet lengths, sum"
attr unit b
statistic IoTCommunication.satellite.eth[0].queue outgoingPacketLengths:histogram
field count 11
field mean 571.63636363636
field stddev 67.538541185419
field min 368
field max 592
field sum 6288
field sqrsum 3640064
attr interpolationmode none
attr recordingmode histogram
attr source packetLength(packetPulled)
attr title "outgoing packet lengths"
attr unit b
bin	-inf	0
bin	310	0
bin	315	0
bin	320	0
bin	325	0
bin	330	0
bin	335	0
bin	340	0
bin	345	0
bin	350	0
bin	355	0
bin	360	0
bin	365	1
bin	370	0
bin	375	0
bin	380	0
bin	385	0
bin	390	0
bin	395	0
bin	400	0
bin	405	0
bin	410	0
bin	415	0
bin	420	0
bin	425	0
bin	430	0
bin	435	0
bin	440	0
bin	445	0
bin	450	0
bin	455	0
bin	460	0
bin	465	0
bin	470	0
bin	475	0
bin	480	0
bin	485	0
bin	490	0
bin	495	0
bin	500	0
bin	505	0
bin	510	0
bin	515	0
bin	520	0
bin	525	0
bin	530	0
bin	535	0
bin	540	0
bin	545	0
bin	550	0
bin	555	0
bin	560	0
bin	565	0
bin	570	0
bin	575	0
bin	580	0
bin	585	0
bin	590	10
bin	595	0
bin	600	0
bin	605	0
bin	610	0
bin	615	0
bin	620	0
bin	625	0
bin	630	0
bin	635	0
bin	640	0
bin	645	0
bin	650	0
statistic IoTCommunication.satellite.eth[0].queue flowQueueingTime:histogram
field count 0
field mean -nan
field stddev nan
field min nan
field max nan
field sum 0
field sqrsum 0
attr interpolationmode none
attr recordingmode histogram
attr source queueingTime(demuxFlow(packetPulled))
attr title "flow queueing times"
attr unit s
bin	-inf	0
bin	0	0
bin	1	0
scalar IoTCommunication.satellite.eth[0].queue incomingPackets:count 11
attr recordingmode count
attr source packetPushStarted
attr title "incoming packets, count"
attr unit pk
scalar IoTCommunication.satellite.eth[0].queue incomingPacketLengths:sum 6288
attr interpolationmode none
attr recordingmode sum
attr source packetLength(packetPushStarted)
attr title "incoming packet lengths, sum"
attr unit b
statistic IoTCommunication.satellite.eth[0].queue incomingPacketLengths:histogram
field count 11
field mean 571.63636363636
field stddev 67.538541185419
field min 368
field max 592
field sum 6288
field sqrsum 3640064
attr interpolationmode none
attr recordingmode histogram
attr source packetLength(packetPushStarted)
attr title "incoming packet lengths"
attr unit b
bin	-inf	0
bin	310	0
bin	315	0
bin	320	0
bin	325	0
bin	330	0
bin	335	0
bin	340	0
bin	345	0
bin	350	0
bin	355	0
bin	360	0
bin	365	1
bin	370	0
bin	375	0
bin	380	0
bin	385	0
bin	390	0
bin	395	0
bin	400	0
bin	405	0
bin	410	0
bin	415	0
bin	420	0
bin	425	0
bin	430	0
bin	435	0
bin	440	0
bin	445	0
bin	450	0
bin	455	0
bin	460	0
bin	465	0
bin	470	0
bin	475	0
bin	480	0
bin	485	0
bin	490	0
bin	495	0
bin	500	0
bin	505	0
bin	510	0
bin	515	0
bin	520	0
bin	525	0
bin	530	0
bin	535	0
bin	540	0
bin	545	0
bin	550	0
bin	555	0
bin	560	0
bin	565	0
bin	570	0
bin	575	0
bin	580	0
bin	585	0
bin	590	10
bin	595	0
bin	600	0
bin	605	0
bin	610	0
bin	615	0
bin	620	0
bin	625	0
bin	630	0
bin	635	0
bin	640	0
bin	645	0
bin	650	0
scalar IoTCommunication.satellite.eth[0].queue droppedPacketsQueueOverflow:count 0
attr interpolationmode none
attr recordingmode count
attr source packetDropReasonIsQueueOverflow(packetDropped)
attr title "dropped packets: queue overflow, count"
attr unit pk
scalar IoTCommunication.satellite.eth[0].queue droppedPacketLengthsQueueOverflow:sum 0
attr interpolationmode none
attr recordingmode sum
attr source packetLength(packetDropReasonIsQueueOverflow(packetDropped))
attr title "dropped packet lengths: queue overflow, sum"
attr unit b
par IoTCommunication.satellite.eth[0].mac typename "\"inet.linklayer.ethernet.basic.EthernetMac\""
par IoTCommunication.satellite.eth[0].mac interfaceTableModule "\"IoTCommunication.satellite.interfaceTable\""
par IoTCommunication.satellite.eth[0].mac displayStringTextFormat "\"rate: %b\\nsent: %s, rcvd: %r\\nqueue: %q, drop: %d\""
par IoTCommunication.satellite.eth[0].mac sendRawBytes false
par IoTCommunication.satellite.eth[0].mac promiscuous false
par IoTCommunication.satellite.eth[0].mac duplexMode true
par IoTCommunication.satellite.eth[0].mac mtu 1500B
attr unit B
par IoTCommunication.satellite.eth[0].mac fcsMode "\"declared\""
attr enum declared,computed
par IoTCommunication.satellite.eth[0].mac stopOperationExtraTime -1s
attr unit s
par IoTCommunication.satellite.eth[0].mac stopOperationTimeout 2s
attr unit s
scalar IoTCommunication.satellite.eth[0].mac "simulated time" 20
scalar IoTCommunication.satellite.eth[0].mac full-duplex 1
scalar IoTCommunication.satellite.eth[0].mac "frames/sec sent" 0.55
scalar IoTCommunication.satellite.eth[0].mac "frames/sec rcvd" 0.55
scalar IoTCommunication.satellite.eth[0].mac "bits/sec sent" 321.6
scalar IoTCommunication.satellite.eth[0].mac "bits/sec rcvd" 609.6
scalar IoTCommunication.satellite.eth[0].mac "rx channel idle (%)" 99.9993552
scalar IoTCommunication.satellite.eth[0].mac "rx channel utilization (%)" 0.0006448
scalar IoTCommunication.satellite.eth[0].mac rxPausePkUnits:count 0
attr interpolationmode none
attr recordingmode count
attr title "pause units received, count"
scalar IoTCommunication.satellite.eth[0].mac rxPausePkUnits:sum 0
attr interpolationmode none
attr recordingmode sum
attr title "pause units received, sum"
scalar IoTCommunication.satellite.eth[0].mac txPausePkUnits:count 0
attr interpolationmode none
attr recordingmode count
attr title "pause units sent, count"
scalar IoTCommunication.satellite.eth[0].mac txPausePkUnits:sum 0
attr interpolationmode none
attr recordingmode sum
attr title "pause units sent, sum"
scalar IoTCommunication.satellite.eth[0].mac rxPkOk:count 11
attr interpolationmode none
attr recordingmode count
attr source rxPkOk
attr title "packets received OK, count"
scalar IoTCommunication.satellite.eth[0].mac rxPkOk:sum(packetBytes) 1524
attr interpolationmode none
attr recordingmode sum(packetBytes)
attr source rxPkOk
attr title "packets received OK, sum(packetBytes)"
scalar IoTCommunication.satellite.eth[0].mac txPk:count 11
attr interpolationmode none
attr recordingmode count
attr source packetSentToLower
attr title "packets transmitted, count"
scalar IoTCommunication.satellite.eth[0].mac txPk:sum(packetBytes) 804
attr interpolationmode none
attr recordingmode sum(packetBytes)
attr source packetSentToLower
attr title "packets transmitted, sum(packetBytes)"
scalar IoTCommunication.satellite.eth[0].mac packetReceivedFromUpper:count 11
attr interpolationmode none
attr recordingmode count
attr source packetReceivedFromUpper
attr title "packet bytes from higher layer, count"
scalar IoTCommunication.satellite.eth[0].mac packetReceivedFromUpper:sum(packetBytes) 786
attr interpolationmode none
attr recordingmode sum(packetBytes)
attr source packetReceivedFromUpper
attr title "packet bytes from higher layer, sum(packetBytes)"
scalar IoTCommunication.satellite.eth[0].mac passedUpPk:count 11
attr interpolationmode none
attr recordingmode count
attr source packetSentToUpper
attr title "packets passed to higher layer, count"
scalar IoTCommunication.satellite.eth[0].mac passedUpPk:sum(packetBytes) 1524
attr interpolationmode none
attr recordingmode sum(packetBytes)
attr source packetSentToUpper
attr title "packets passed to higher layer, sum(packetBytes)"
scalar IoTCommunication.satellite.eth[0].mac packetDropIncorrectlyReceived:count 0
attr interpolationmode none
attr recordingmode count
attr source packetDropReasonIsIncorrectlyReceived(packetDropped)
attr title "packet drop: incorrectly received, count"
scalar IoTCommunication.satellite.eth[0].mac packetDropIncorrectlyReceived:sum(packetBytes) 0
attr interpolationmode none
attr recordingmode sum(packetBytes)
attr source packetDropReasonIsIncorrectlyReceived(packetDropped)
attr title "packet drop: incorrectly received, sum(packetBytes)"
scalar IoTCommunication.satellite.eth[0].mac packetDropInterfaceDown:count 0
attr interpolationmode none
attr recordingmode count
attr source packetDropReasonIsInterfaceDown(packetDropped)
attr title "packet drop: interface down, count"
scalar IoTCommunication.satellite.eth[0].mac packetDropInterfaceDown:sum(packetBytes) 0
attr interpolationmode none
attr recordingmode sum(packetBytes)
attr source packetDropReasonIsInterfaceDown(packetDropped)
attr title "packet drop: interface down, sum(packetBytes)"
scalar IoTCommunication.satellite.eth[0].mac packetDropNotAddressedToUs:count 0
attr interpolationmode none
attr recordingmode count
attr source packetDropReasonIsNotAddressedToUs(packetDropped)
attr title "packet drop: not addressed to us, count"
scalar IoTCommunication.satellite.eth[0].mac packetDropNotAddressedToUs:sum(packetBytes) 0
attr interpolationmode none
attr recordingmode sum(packetBytes)
attr source packetDropReasonIsNotAddressedToUs(packetDropped)
attr title "packet drop: not addressed to us, sum(packetBytes)"
par IoTCommunication.satellite.eth[0] typename "\"inet.linklayer.ethernet.EthernetInterface\""
par IoTCommunication.satellite.eth[0] displayStringTextFormat "\"%a (%i)\\n%m\""
par IoTCommunication.satellite.eth[0] recordPcap false
par IoTCommunication.satellite.eth[0] numPcapRecorders 0
par IoTCommunication.satellite.eth[0] interfaceTableModule "\"IoTCommunication.satellite.interfaceTable\""
par IoTCommunication.satellite.eth[0] protocol "\"ethernetmac\""
par IoTCommunication.satellite.eth[0] address "\"0A-AA-00-00-00-01\""
attr mutable ""
par IoTCommunication.satellite.eth[0] duplexMode true
par IoTCommunication.satellite.eth[0] csmacdSupport false
par IoTCommunication.satellite.eth[0] bitrate 0bps
attr unit bps
par IoTCommunication.satellite.eth[0] fcsMode "\"declared\""
attr enum declared,computed
scalar IoTCommunication.satellite.eth[0] packetDropInterfaceDown:count 0
attr interpolationmode none
attr recordingmode count
attr source packetDropReasonIsInterfaceDown(packetDropped)
attr title "packet drops: interface down, count"
scalar IoTCommunication.satellite.eth[0] packetDropInterfaceDown:sum(packetBytes) 0
attr interpolationmode none
attr recordingmode sum(packetBytes)
attr source packetDropReasonIsInterfaceDown(packetDropped)
attr title "packet drops: interface down, sum(packetBytes)"
scalar IoTCommunication.satellite.eth[0] packetDropNoCarrier:count 0
attr interpolationmode none
attr recordingmode count
attr source packetDropReasonIsNoCarrier(packetDropped)
attr title "packet drops: no carrier, count"
scalar IoTCommunication.satellite.eth[0] packetDropNoCarrier:sum(packetBytes) 0
attr interpolationmode none
attr recordingmode sum(packetBytes)
attr source packetDropReasonIsNoCarrier(packetDropped)
attr title "packet drops: no carrier, sum(packetBytes)"
par IoTCommunication.satellite.ipv4.transportIn.channel typename "\"ned.IdealChannel\""
par IoTCommunication.satellite.ipv4.up.out[0].channel typename "\"ned.IdealChannel\""
par IoTCommunication.satellite.ipv4.lp.out[2].channel typename "\"ned.IdealChannel\""
par IoTCommunication.satellite.ipv4.ifIn.channel typename "\"ned.IdealChannel\""
par IoTCommunication.satellite.ipv4.configurator typename "\"inet.networklayer.configurator.ipv4.Ipv4NodeConfigurator\""
par IoTCommunication.satellite.ipv4.configurator interfaceTableModule "\"IoTCommunication.satellite.interfaceTable\""
par IoTCommunication.satellite.ipv4.configurator routingTableModule "\"IoTCommunication.satellite.ipv4.routingTable\""
par IoTCommunication.satellite.ipv4.configurator networkConfiguratorModule "\"configurator\""
par IoTCommunication.satellite.ipv4.configurator configureRoutingTable true
par IoTCommunication.satellite.ipv4.routingTable typename "\"inet.networklayer.ipv4.Ipv4RoutingTable\""
par IoTCommunication.satellite.ipv4.routingTable interfaceTableModule "\"IoTCommunication.satellite.interfaceTable\""
par IoTCommunication.satellite.ipv4.routingTable routerId "\"auto\""
par IoTCommunication.satellite.ipv4.routingTable netmaskRoutes "\"*\""
par IoTCommunication.satellite.ipv4.routingTable forwarding true
par IoTCommunication.satellite.ipv4.routingTable multicastForwarding false
par IoTCommunication.satellite.ipv4.routingTable useAdminDist false
par IoTCommunication.satellite.ipv4.routingTable routingFile "\"\""
par IoTCommunication.satellite.ipv4.natTable typename "\"inet.networklayer.ipv4.Ipv4NatTable\""
par IoTCommunication.satellite.ipv4.natTable networkProtocolModule "\"^.ip\""
par IoTCommunication.satellite.ipv4.natTable config "<config/> at content:1"
par IoTCommunication.satellite.ipv4.up typename "\"inet.common.MessageDispatcher\""
par IoTCommunication.satellite.ipv4.up displayStringTextFormat "\"processed %p pk (%l)\""
par IoTCommunication.satellite.ipv4.up forwardServiceRegistration true
par IoTCommunication.satellite.ipv4.up forwardProtocolRegistration true
par IoTCommunication.satellite.ipv4.igmp typename "\"inet.networklayer.ipv4.Igmpv2\""
par IoTCommunication.satellite.ipv4.igmp interfaceTableModule "\"IoTCommunication.satellite.interfaceTable\""
par IoTCommunication.satellite.ipv4.igmp routingTableModule "\"IoTCommunication.satellite.ipv4.routingTable\""
par IoTCommunication.satellite.ipv4.igmp crcMode "\"declared\""
attr enum declared,computed
par IoTCommunication.satellite.ipv4.igmp enabled true
par IoTCommunication.satellite.ipv4.igmp robustnessVariable 2
par IoTCommunication.satellite.ipv4.igmp queryInterval 125s
attr unit s
par IoTCommunication.satellite.ipv4.igmp queryResponseInterval 10s
attr unit s
par IoTCommunication.satellite.ipv4.igmp groupMembershipInterval 260s
attr unit s
par IoTCommunication.satellite.ipv4.igmp otherQuerierPresentInterval 255s
attr unit s
par IoTCommunication.satellite.ipv4.igmp startupQueryInterval 31.25s
attr unit s
par IoTCommunication.satellite.ipv4.igmp startupQueryCount 2
par IoTCommunication.satellite.ipv4.igmp lastMemberQueryInterval 1s
attr unit s
par IoTCommunication.satellite.ipv4.igmp lastMemberQueryCount 2
par IoTCommunication.satellite.ipv4.igmp unsolicitedReportInterval 10s
attr unit s
par IoTCommunication.satellite.ipv4.icmp typename "\"inet.networklayer.ipv4.Icmp\""
par IoTCommunication.satellite.ipv4.icmp interfaceTableModule "\"IoTCommunication.satellite.interfaceTable\""
par IoTCommunication.satellite.ipv4.icmp routingTableModule "\"IoTCommunication.satellite.ipv4.routingTable\""
par IoTCommunication.satellite.ipv4.icmp crcMode "\"declared\""
attr enum declared,computed
attr mutable ""
par IoTCommunication.satellite.ipv4.icmp quoteLength 8B
attr mutable ""
attr unit B
par IoTCommunication.satellite.ipv4.mp typename "\"inet.common.MessageDispatcher\""
par IoTCommunication.satellite.ipv4.mp displayStringTextFormat "\"processed %p pk (%l)\""
par IoTCommunication.satellite.ipv4.mp forwardServiceRegistration true
par IoTCommunication.satellite.ipv4.mp forwardProtocolRegistration true
par IoTCommunication.satellite.ipv4.ip typename "\"inet.networklayer.ipv4.Ipv4\""
par IoTCommunication.satellite.ipv4.ip interfaceTableModule "\"IoTCommunication.satellite.interfaceTable\""
par IoTCommunication.satellite.ipv4.ip routingTableModule "\"IoTCommunication.satellite.ipv4.routingTable\""
par IoTCommunication.satellite.ipv4.ip arpModule "\"IoTCommunication.satellite.ipv4.arp\""
par IoTCommunication.satellite.ipv4.ip icmpModule "\"IoTCommunication.satellite.ipv4.icmp\""
par IoTCommunication.satellite.ipv4.ip crcMode "\"declared\""
attr enum declared,computed
par IoTCommunication.satellite.ipv4.ip timeToLive 32
par IoTCommunication.satellite.ipv4.ip multicastTimeToLive 32
par IoTCommunication.satellite.ipv4.ip fragmentTimeout 60s
attr unit s
par IoTCommunication.satellite.ipv4.ip limitedBroadcast false
par IoTCommunication.satellite.ipv4.ip directBroadcastInterfaces "\"\""
scalar IoTCommunication.satellite.ipv4.ip packetDropAddressResolutionFailed:count 0
attr interpolationmode none
attr recordingmode count
attr source packetDropReasonIsAddressResolutionFailed(packetDropped)
attr title "packet drop: address resolution failed, count"
scalar IoTCommunication.satellite.ipv4.ip packetDropAddressResolutionFailed:sum(packetBytes) 0
attr interpolationmode none
attr recordingmode sum(packetBytes)
attr source packetDropReasonIsAddressResolutionFailed(packetDropped)
attr title "packet drop: address resolution failed, sum(packetBytes)"
scalar IoTCommunication.satellite.ipv4.ip packetDropHopLimitReached:count 0
attr interpolationmode none
attr recordingmode count
attr source packetDropReasonIsHopLimitReached(packetDropped)
attr title "packet drop: hop limit reached, count"
scalar IoTCommunication.satellite.ipv4.ip packetDropHopLimitReached:sum(packetBytes) 0
attr interpolationmode none
attr recordingmode sum(packetBytes)
attr source packetDropReasonIsHopLimitReached(packetDropped)
attr title "packet drop: hop limit reached, sum(packetBytes)"
scalar IoTCommunication.satellite.ipv4.ip packetDropForwardingDisabled:count 0
attr interpolationmode none
attr recordingmode count
attr source packetDropReasonIsForwardingDisabled(packetDropped)
attr title "packet drop: forwarding disabled, count"
scalar IoTCommunication.satellite.ipv4.ip packetDropForwardingDisabled:sum(packetBytes) 0
attr interpolationmode none
attr recordingmode sum(packetBytes)
attr source packetDropReasonIsForwardingDisabled(packetDropped)
attr title "packet drop: forwarding disabled, sum(packetBytes)"
scalar IoTCommunication.satellite.ipv4.ip packetDropNoInterfaceFound:count 0
attr interpolationmode none
attr recordingmode count
attr source packetDropReasonIsNoInterfaceFound(packetDropped)
attr title "packet drop: no interface found, count"
scalar IoTCommunication.satellite.ipv4.ip packetDropNoInterfaceFound:sum(packetBytes) 0
attr interpolationmode none
attr recordingmode sum(packetBytes)
attr source packetDropReasonIsNoInterfaceFound(packetDropped)
attr title "packet drop: no interface found, sum(packetBytes)"
scalar IoTCommunication.satellite.ipv4.ip packetDropNoRouteFound:count 0
attr interpolationmode none
attr recordingmode count
attr source packetDropReasonIsNoRouteFound(packetDropped)
attr title "packet drop: no route found, count"
scalar IoTCommunication.satellite.ipv4.ip packetDropNoRouteFound:sum(packetBytes) 0
attr interpolationmode none
attr recordingmode sum(packetBytes)
attr source packetDropReasonIsNoRouteFound(packetDropped)
attr title "packet drop: no route found, sum(packetBytes)"
scalar IoTCommunication.satellite.ipv4.ip packetDropUndefined:count 0
attr interpolationmode none
attr recordingmode count
attr source packetDropReasonIsUndefined(packetDropped)
attr title "packet drop: undefined, count"
scalar IoTCommunication.satellite.ipv4.ip packetDropUndefined:sum(packetBytes) 0
attr interpolationmode none
attr recordingmode sum(packetBytes)
attr source packetDropReasonIsUndefined(packetDropped)
attr title "packet drop: undefined, sum(packetBytes)"
par IoTCommunication.satellite.ipv4.arp typename "\"inet.networklayer.arp.ipv4.Arp\""
par IoTCommunication.satellite.ipv4.arp interfaceTableModule "\"IoTCommunication.satellite.interfaceTable\""
par IoTCommunication.satellite.ipv4.arp routingTableModule "\"IoTCommunication.satellite.ipv4.routingTable\""
par IoTCommunication.satellite.ipv4.arp retryTimeout 1s
attr unit s
par IoTCommunication.satellite.ipv4.arp retryCount 3
par IoTCommunication.satellite.ipv4.arp cacheTimeout 120s
attr unit s
par IoTCommunication.satellite.ipv4.arp proxyArpInterfaces "\"*\""
scalar IoTCommunication.satellite.ipv4.arp arpResolutionFailed:count 0
attr recordingmode count
attr title "ARP failed resolutions, count"
scalar IoTCommunication.satellite.ipv4.arp arpResolutionCompleted:count 1
attr recordingmode count
attr title "ARP completed resolutions, count"
scalar IoTCommunication.satellite.ipv4.arp arpResolutionInitiated:count 0
attr recordingmode count
attr title "ARP initiated resolutions, count"
scalar IoTCommunication.satellite.ipv4.arp arpReplySent:count 1
attr recordingmode count
attr source arpReplySent
attr title "ARP replies sent, count"
scalar IoTCommunication.satellite.ipv4.arp arpReplySent:sum(packetBytes) 28
attr recordingmode sum(packetBytes)
attr source arpReplySent
attr title "ARP replies sent, sum(packetBytes)"
scalar IoTCommunication.satellite.ipv4.arp arpRequestSent:count 0
attr recordingmode count
attr source arpRequestSent
attr title "ARP request sent, count"
scalar IoTCommunication.satellite.ipv4.arp arpRequestSent:sum(packetBytes) 0
attr recordingmode sum(packetBytes)
attr source arpRequestSent
attr title "ARP request sent, sum(packetBytes)"
par IoTCommunication.satellite.ipv4.lp typename "\"inet.common.MessageDispatcher\""
par IoTCommunication.satellite.ipv4.lp displayStringTextFormat "\"processed %p pk (%l)\""
par IoTCommunication.satellite.ipv4.lp forwardServiceRegistration true
par IoTCommunication.satellite.ipv4.lp forwardProtocolRegistration true
par IoTCommunication.satellite.ipv4 typename "\"inet.networklayer.ipv4.Ipv4NetworkLayer\""
par IoTCommunication.satellite.ipv4 forwarding true
par IoTCommunication.satellite.ipv4 multicastForwarding false
par IoTCommunication.satellite.ipv4 interfaceTableModule "\"IoTCommunication.satellite.interfaceTable\""
par IoTCommunication.satellite.ipv4 displayStringTextFormat "\"%i\""
par IoTCommunication.satellite.nl typename "\"inet.common.MessageDispatcher\""
par IoTCommunication.satellite.nl displayStringTextFormat "\"processed %p pk (%l)\""
par IoTCommunication.satellite.nl forwardServiceRegistration true
par IoTCommunication.satellite.nl forwardProtocolRegistration true
par IoTCommunication.satellite.tn typename "\"inet.common.MessageDispatcher\""
par IoTCommunication.satellite.tn displayStringTextFormat "\"processed %p pk (%l)\""
par IoTCommunication.satellite.tn forwardServiceRegistration true
par IoTCommunication.satellite.tn forwardProtocolRegistration true
par IoTCommunication.satellite.at typename "\"inet.common.MessageDispatcher\""
par IoTCommunication.satellite.at displayStringTextFormat "\"processed %p pk (%l)\""
par IoTCommunication.satellite.at forwardServiceRegistration true
par IoTCommunication.satellite.at forwardProtocolRegistration true
par IoTCommunication.satellite typename "\"inet.node.inet.Router\""
par IoTCommunication.satellite hasStatus false
par IoTCommunication.satellite osgModel "\"\""
par IoTCommunication.satellite osgModelColor "\"\""
par IoTCommunication.satellite canvasImage "\"\""
par IoTCommunication.satellite canvasImageColor "\"\""
par IoTCommunication.satellite recordPcap false
par IoTCommunication.satellite numPcapRecorders 0
par IoTCommunication.satellite numLoInterfaces 1
par IoTCommunication.satellite numWlanInterfaces 0
par IoTCommunication.satellite numEthInterfaces 1
par IoTCommunication.satellite numPppInterfaces 0
par IoTCommunication.satellite numTunInterfaces 0
par IoTCommunication.satellite numVirtInterfaces 0
par IoTCommunication.satellite fcsMode "\"declared\""
attr enum declared,computed
par IoTCommunication.satellite hasIpv4 true
par IoTCommunication.satellite hasIpv6 false
par IoTCommunication.satellite hasGn false
par IoTCommunication.satellite forwarding true
par IoTCommunication.satellite multicastForwarding false
par IoTCommunication.satellite hasUdp false
par IoTCommunication.satellite hasTcp false
par IoTCommunication.satellite hasSctp false
par IoTCommunication.satellite numApps 0
par IoTCommunication.satellite hasEigrp false
par IoTCommunication.satellite hasOspf false
par IoTCommunication.satellite hasRip false
par IoTCommunication.satellite hasBgp false
par IoTCommunication.satellite hasPim false
par IoTCommunication.satellite hasDhcp false
par IoTCommunication.baseStation.ethg$i[0].channel typename "\"ned.IdealChannel\""
par IoTCommunication.baseStation.eth[0].phys$o.channel typename "\"ned.IdealChannel\""
par IoTCommunication.baseStation.ethg$i[1].channel typename "\"ned.IdealChannel\""
par IoTCommunication.baseStation.eth[1].phys$o.channel typename "\"ned.IdealChannel\""
par IoTCommunication.baseStation.ethg$i[2].channel typename "\"ned.IdealChannel\""
par IoTCommunication.baseStation.eth[2].phys$o.channel typename "\"ned.IdealChannel\""
par IoTCommunication.baseStation.mobility typename "\"inet.mobility.static.StationaryMobility\""
par IoTCommunication.baseStation.mobility subjectModule "\"^\""
par IoTCommunication.baseStation.mobility coordinateSystemModule "\"\""
par IoTCommunication.baseStation.mobility displayStringTextFormat "\"p: %p\\nv: %v\""
attr mutable ""
par IoTCommunication.baseStation.mobility updateDisplayString true
par IoTCommunication.baseStation.mobility constraintAreaMinX "-inf m"
attr unit m
par IoTCommunication.baseStation.mobility constraintAreaMinY "-inf m"
attr unit m
par IoTCommunication.baseStation.mobility constraintAreaMinZ "-inf m"
attr unit m
par IoTCommunication.baseStation.mobility constraintAreaMaxX "inf m"
attr unit m
par IoTCommunication.baseStation.mobility constraintAreaMaxY "inf m"
attr unit m
par IoTCommunication.baseStation.mobility constraintAreaMaxZ "inf m"
attr unit m
par IoTCommunication.baseStation.mobility initialX 400m
attr unit m
par IoTCommunication.baseStation.mobility initialY 300m
attr unit m
par IoTCommunication.baseStation.mobility initialZ 0m
attr unit m
par IoTCommunication.baseStation.mobility initialLatitude "nan deg"
attr unit deg
par IoTCommunication.baseStation.mobility initialLongitude "nan deg"
attr unit deg
par IoTCommunication.baseStation.mobility initialAltitude 0m
attr unit m
par IoTCommunication.baseStation.mobility initialHeading 0deg
attr unit deg
par IoTCommunication.baseStation.mobility initialElevation 0deg
attr unit deg
par IoTCommunication.baseStation.mobility initialBank 0deg
attr unit deg
par IoTCommunication.baseStation.mobility initFromDisplayString true
par IoTCommunication.baseStation.mobility updateFromDisplayString true
par IoTCommunication.baseStation.interfaceTable typename "\"inet.networklayer.common.InterfaceTable\""
par IoTCommunication.baseStation.interfaceTable displayAddresses false
par IoTCommunication.baseStation.cb typename "\"inet.common.MessageDispatcher\""
par IoTCommunication.baseStation.cb displayStringTextFormat "\"processed %p pk (%l)\""
par IoTCommunication.baseStation.cb forwardServiceRegistration true
par IoTCommunication.baseStation.cb forwardProtocolRegistration true
par IoTCommunication.baseStation.bl typename "\"inet.common.MessageDispatcher\""
par IoTCommunication.baseStation.bl displayStringTextFormat "\"processed %p pk (%l)\""
par IoTCommunication.baseStation.bl forwardServiceRegistration true
par IoTCommunication.baseStation.bl forwardProtocolRegistration true
par IoTCommunication.baseStation.ethernet typename "\"inet.linklayer.ethernet.basic.EthernetEncapsulation\""
par IoTCommunication.baseStation.ethernet registerProtocol true
par IoTCommunication.baseStation.ethernet interfaceTableModule "\"IoTCommunication.baseStation.interfaceTable\""
par IoTCommunication.baseStation.ethernet fcsMode "\"declared\""
attr enum declared,computed
par IoTCommunication.baseStation.ethernet stopOperationExtraTime -1s
attr unit s
par IoTCommunication.baseStation.ethernet stopOperationTimeout 2s
attr unit s
scalar IoTCommunication.baseStation.ethernet pauseSent:count 0
attr recordingmode count
attr title "pause sent, count"
scalar IoTCommunication.baseStation.ethernet pauseSent:sum 0
attr recordingmode sum
attr title "pause sent, sum"
scalar IoTCommunication.baseStation.ethernet decapPk:count 30
attr interpolationmode none
attr recordingmode count
attr source decapPk
attr title "packets decapsulated, count"
scalar IoTCommunication.baseStation.ethernet decapPk:sum(packetBytes) 3574
attr interpolationmode none
attr recordingmode sum(packetBytes)
attr source decapPk
attr title "packets decapsulated, sum(packetBytes)"
scalar IoTCommunication.baseStation.ethernet encapPk:count 30
attr interpolationmode none
attr recordingmode count
attr source encapPk
attr title "packets encapsulated, count"
scalar IoTCommunication.baseStation.ethernet encapPk:sum(packetBytes) 2316
attr interpolationmode none
attr recordingmode sum(packetBytes)
attr source encapPk
attr title "packets encapsulated, sum(packetBytes)"
par IoTCommunication.baseStation.li typename "\"inet.common.MessageDispatcher\""
par IoTCommunication.baseStation.li displayStringTextFormat "\"processed %p pk (%l)\""
par IoTCommunication.baseStation.li forwardServiceRegistration true
par IoTCommunication.baseStation.li forwardProtocolRegistration true
par IoTCommunication.baseStation.lo[0].upperLayerIn.channel typename "\"ned.IdealChannel\""
par IoTCommunication.baseStation.lo[0].lo.upperLayerOut.channel typename "\"ned.IdealChannel\""
par IoTCommunication.baseStation.lo[0].lo typename "\"inet.linklayer.loopback.Loopback\""
par IoTCommunication.baseStation.lo[0].lo interfaceTableModule "\"IoTCommunication.baseStation.interfaceTable\""
par IoTCommunication.baseStation.lo[0].lo mtu 4470B
attr unit B
scalar IoTCommunication.baseStation.lo[0].lo rcvdPkFromHl:count 0
attr interpolationmode none
attr recordingmode count
attr source packetReceivedFromUpper
attr title "packets received from higher layer, count"
scalar IoTCommunication.baseStation.lo[0].lo rcvdPkFromHl:sum(packetBytes) 0
attr interpolationmode none
attr recordingmode sum(packetBytes)
attr source packetReceivedFromUpper
attr title "packets received from higher layer, sum(packetBytes)"
scalar IoTCommunication.baseStation.lo[0].lo passedUpPk:count 0
attr interpolationmode none
attr recordingmode count
attr source packetSentToUpper
attr title "packets passed to higher layer, count"
scalar IoTCommunication.baseStation.lo[0].lo passedUpPk:sum(packetBytes) 0
attr interpolationmode none
attr recordingmode sum(packetBytes)
attr source packetSentToUpper
attr title "packets passed to higher layer, sum(packetBytes)"
par IoTCommunication.baseStation.lo[0] typename "\"inet.linklayer.loopback.LoopbackInterface\""
par IoTCommunication.baseStation.lo[0] displayStringTextFormat "\"%a (%i)\\n%m\""
par IoTCommunication.baseStation.lo[0] recordPcap false
par IoTCommunication.baseStation.lo[0] numPcapRecorders 0
par IoTCommunication.baseStation.lo[0] interfaceTableModule "\"IoTCommunication.baseStation.interfaceTable\""
scalar IoTCommunication.baseStation.lo[0] packetDropInterfaceDown:count 0
attr interpolationmode none
attr recordingmode count
attr source packetDropReasonIsInterfaceDown(packetDropped)
attr title "packet drops: interface down, count"
scalar IoTCommunication.baseStation.lo[0] packetDropInterfaceDown:sum(packetBytes) 0
attr interpolationmode none
attr recordingmode sum(packetBytes)
attr source packetDropReasonIsInterfaceDown(packetDropped)
attr title "packet drops: interface down, sum(packetBytes)"
scalar IoTCommunication.baseStation.lo[0] packetDropNoCarrier:count 0
attr interpolationmode none
attr recordingmode count
attr source packetDropReasonIsNoCarrier(packetDropped)
attr title "packet drops: no carrier, count"
scalar IoTCommunication.baseStation.lo[0] packetDropNoCarrier:sum(packetBytes) 0
attr interpolationmode none
attr recordingmode sum(packetBytes)
attr source packetDropReasonIsNoCarrier(packetDropped)
attr title "packet drops: no carrier, sum(packetBytes)"
par IoTCommunication.baseStation.eth[0].mac.phys$o.channel typename "\"ned.IdealChannel\""
par IoTCommunication.baseStation.eth[0].phys$i.channel typename "\"ned.IdealChannel\""
par IoTCommunication.baseStation.eth[0].upperLayerIn.channel typename "\"ned.IdealChannel\""
par IoTCommunication.baseStation.eth[0].mac.upperLayerOut.channel typename "\"ned.IdealChannel\""
par IoTCommunication.baseStation.eth[0].queue typename "\"inet.linklayer.ethernet.common.EthernetQueue\""
par IoTCommunication.baseStation.eth[0].queue displayStringTextFormat "\"contains %p pk (%l) pushed %u\\npulled %o removed %r dropped %d\""
par IoTCommunication.baseStation.eth[0].queue packetCapacity 1000
par IoTCommunication.baseStation.eth[0].queue dataCapacity -1b
attr unit b
par IoTCommunication.baseStation.eth[0].queue dropperClass "\"inet::queueing::PacketAtCollectionEndDropper\""
par IoTCommunication.baseStation.eth[0].queue comparatorClass "\"inet::EthernetFrameTypeComparator\""
par IoTCommunication.baseStation.eth[0].queue bufferModule "\"\""
scalar IoTCommunication.baseStation.eth[0].queue queueLength:last 0
attr autoWarmupFilter false
attr interpolationmode sample-hold
attr recordingmode last
attr source "warmup(atomic(constant0(packetPushEnded) + count(packetPushStarted) - count(packetPulled) - count(packetRemoved) - count(packetDropped)))"
attr title "queue length, last"
attr unit pk
scalar IoTCommunication.baseStation.eth[0].queue queueLength:max 0
attr autoWarmupFilter false
attr interpolationmode sample-hold
attr recordingmode max
attr source "warmup(atomic(constant0(packetPushEnded) + count(packetPushStarted) - count(packetPulled) - count(packetRemoved) - count(packetDropped)))"
attr title "queue length, max"
attr unit pk
scalar IoTCommunication.baseStation.eth[0].queue queueLength:timeavg 0
attr autoWarmupFilter false
attr interpolationmode sample-hold
attr recordingmode timeavg
attr source "warmup(atomic(constant0(packetPushEnded) + count(packetPushStarted) - count(packetPulled) - count(packetRemoved) - count(packetDropped)))"
attr title "queue length, timeavg"
attr unit pk
scalar IoTCommunication.baseStation.eth[0].queue queueBitLength:last 0
attr autoWarmupFilter false
attr interpolationmode sample-hold
attr recordingmode last
attr source "warmup(atomic(constant0(packetPushEnded) + sum(packetLength(packetPushStarted)) - sum(packetLength(packetPulled)) - sum(packetLength(packetRemoved)) - sum(packetLength(packetDropped))))"
attr title "queue bit length, last"
attr unit b
scalar IoTCommunication.baseStation.eth[0].queue queueBitLength:max 0
attr autoWarmupFilter false
attr interpolationmode sample-hold
attr recordingmode max
attr source "warmup(atomic(constant0(packetPushEnded) + sum(packetLength(packetPushStarted)) - sum(packetLength(packetPulled)) - sum(packetLength(packetRemoved)) - sum(packetLength(packetDropped))))"
attr title "queue bit length, max"
attr unit b
scalar IoTCommunication.baseStation.eth[0].queue queueBitLength:timeavg 0
attr autoWarmupFilter false
attr interpolationmode sample-hold
attr recordingmode timeavg
attr source "warmup(atomic(constant0(packetPushEnded) + sum(packetLength(packetPushStarted)) - sum(packetLength(packetPulled)) - sum(packetLength(packetRemoved)) - sum(packetLength(packetDropped))))"
attr title "queue bit length, timeavg"
attr unit b
statistic IoTCommunication.baseStation.eth[0].queue queueingTime:histogram
field count 11
field mean 0
field stddev 0
field min 0
field max 0
field sum 0
field sqrsum 0
attr interpolationmode none
attr recordingmode histogram
attr source queueingTime(packetPulled)
attr title "queueing times"
attr unit s
bin	-inf	0
bin	-0.5	0
bin	-0.48	0
bin	-0.46	0
bin	-0.44	0
bin	-0.42	0
bin	-0.4	0
bin	-0.38	0
bin	-0.36	0
bin	-0.34	0
bin	-0.32	0
bin	-0.3	0
bin	-0.28	0
bin	-0.26	0
bin	-0.24	0
bin	-0.22	0
bin	-0.2	0
bin	-0.18	0
bin	-0.16	0
bin	-0.14	0
bin	-0.12	0
bin	-0.1	0
bin	-0.08	0
bin	-0.06	0
bin	-0.04	0
bin	-0.02	0
bin	0	11
bin	0.02	0
bin	0.04	0
bin	0.06	0
bin	0.08	0
bin	0.1	0
bin	0.12	0
bin	0.14	0
bin	0.16	0
bin	0.18	0
bin	0.2	0
bin	0.22	0
bin	0.24	0
bin	0.26	0
bin	0.28	0
bin	0.3	0
bin	0.32	0
bin	0.34	0
bin	0.36	0
bin	0.38	0
bin	0.4	0
bin	0.42	0
bin	0.44	0
bin	0.46	0
bin	0.48	0
bin	0.5	0
scalar IoTCommunication.baseStation.eth[0].queue outgoingPackets:count 11
attr recordingmode count
attr source packetPulled
attr title "outgoing packets, count"
attr unit pk
scalar IoTCommunication.baseStation.eth[0].queue outgoingPacketLengths:sum 6288
attr interpolationmode none
attr recordingmode sum
attr source packetLength(packetPulled)
attr title "outgoing packet lengths, sum"
attr unit b
statistic IoTCommunication.baseStation.eth[0].queue outgoingPacketLengths:histogram
field count 11
field mean 571.63636363636
field stddev 67.538541185419
field min 368
field max 592
field sum 6288
field sqrsum 3640064
attr interpolationmode none
attr recordingmode histogram
attr source packetLength(packetPulled)
attr title "outgoing packet lengths"
attr unit b
bin	-inf	0
bin	310	0
bin	315	0
bin	320	0
bin	325	0
bin	330	0
bin	335	0
bin	340	0
bin	345	0
bin	350	0
bin	355	0
bin	360	0
bin	365	1
bin	370	0
bin	375	0
bin	380	0
bin	385	0
bin	390	0
bin	395	0
bin	400	0
bin	405	0
bin	410	0
bin	415	0
bin	420	0
bin	425	0
bin	430	0
bin	435	0
bin	440	0
bin	445	0
bin	450	0
bin	455	0
bin	460	0
bin	465	0
bin	470	0
bin	475	0
bin	480	0
bin	485	0
bin	490	0
bin	495	0
bin	500	0
bin	505	0
bin	510	0
bin	515	0
bin	520	0
bin	525	0
bin	530	0
bin	535	0
bin	540	0
bin	545	0
bin	550	0
bin	555	0
bin	560	0
bin	565	0
bin	570	0
bin	575	0
bin	580	0
bin	585	0
bin	590	10
bin	595	0
bin	600	0
bin	605	0
bin	610	0
bin	615	0
bin	620	0
bin	625	0
bin	630	0
bin	635	0
bin	640	0
bin	645	0
bin	650	0
statistic IoTCommunication.baseStation.eth[0].queue flowQueueingTime:histogram
field count 0
field mean -nan
field stddev nan
field min nan
field max nan
field sum 0
field sqrsum 0
attr interpolationmode none
attr recordingmode histogram
attr source queueingTime(demuxFlow(packetPulled))
attr title "flow queueing times"
attr unit s
bin	-inf	0
bin	0	0
bin	1	0
scalar IoTCommunication.baseStation.eth[0].queue incomingPackets:count 11
attr recordingmode count
attr source packetPushStarted
attr title "incoming packets, count"
attr unit pk
scalar IoTCommunication.baseStation.eth[0].queue incomingPacketLengths:sum 6288
attr interpolationmode none
attr recordingmode sum
attr source packetLength(packetPushStarted)
attr title "incoming packet lengths, sum"
attr unit b
statistic IoTCommunication.baseStation.eth[0].queue incomingPacketLengths:histogram
field count 11
field mean 571.63636363636
field stddev 67.538541185419
field min 368
field max 592
field sum 6288
field sqrsum 3640064
attr interpolationmode none
attr recordingmode histogram
attr source packetLength(packetPushStarted)
attr title "incoming packet lengths"
attr unit b
bin	-inf	0
bin	310	0
bin	315	0
bin	320	0
bin	325	0
bin	330	0
bin	335	0
bin	340	0
bin	345	0
bin	350	0
bin	355	0
bin	360	0
bin	365	1
bin	370	0
bin	375	0
bin	380	0
bin	385	0
bin	390	0
bin	395	0
bin	400	0
bin	405	0
bin	410	0
bin	415	0
bin	420	0
bin	425	0
bin	430	0
bin	435	0
bin	440	0
bin	445	0
bin	450	0
bin	455	0
bin	460	0
bin	465	0
bin	470	0
bin	475	0
bin	480	0
bin	485	0
bin	490	0
bin	495	0
bin	500	0
bin	505	0
bin	510	0
bin	515	0
bin	520	0
bin	525	0
bin	530	0
bin	535	0
bin	540	0
bin	545	0
bin	550	0
bin	555	0
bin	560	0
bin	565	0
bin	570	0
bin	575	0
bin	580	0
bin	585	0
bin	590	10
bin	595	0
bin	600	0
bin	605	0
bin	610	0
bin	615	0
bin	620	0
bin	625	0
bin	630	0
bin	635	0
bin	640	0
bin	645	0
bin	650	0
scalar IoTCommunication.baseStation.eth[0].queue droppedPacketsQueueOverflow:count 0
attr interpolationmode none
attr recordingmode count
attr source packetDropReasonIsQueueOverflow(packetDropped)
attr title "dropped packets: queue overflow, count"
attr unit pk
scalar IoTCommunication.baseStation.eth[0].queue droppedPacketLengthsQueueOverflow:sum 0
attr interpolationmode none
attr recordingmode sum
attr source packetLength(packetDropReasonIsQueueOverflow(packetDropped))
attr title "dropped packet lengths: queue overflow, sum"
attr unit b
par IoTCommunication.baseStation.eth[0].mac typename "\"inet.linklayer.ethernet.basic.EthernetMac\""
par IoTCommunication.baseStation.eth[0].mac interfaceTableModule "\"IoTCommunication.baseStation.interfaceTable\""
par IoTCommunication.baseStation.eth[0].mac displayStringTextFormat "\"rate: %b\\nsent: %s, rcvd: %r\\nqueue: %q, drop: %d\""
par IoTCommunication.baseStation.eth[0].mac sendRawBytes false
par IoTCommunication.baseStation.eth[0].mac promiscuous false
par IoTCommunication.baseStation.eth[0].mac duplexMode true
par IoTCommunication.baseStation.eth[0].mac mtu 1500B
attr unit B
par IoTCommunication.baseStation.eth[0].mac fcsMode "\"declared\""
attr enum declared,computed
par IoTCommunication.baseStation.eth[0].mac stopOperationExtraTime -1s
attr unit s
par IoTCommunication.baseStation.eth[0].mac stopOperationTimeout 2s
attr unit s
scalar IoTCommunication.baseStation.eth[0].mac "simulated time" 20
scalar IoTCommunication.baseStation.eth[0].mac full-duplex 1
scalar IoTCommunication.baseStation.eth[0].mac "frames/sec sent" 0.55
scalar IoTCommunication.baseStation.eth[0].mac "frames/sec rcvd" 0.55
scalar IoTCommunication.baseStation.eth[0].mac "bits/sec sent" 321.6
scalar IoTCommunication.baseStation.eth[0].mac "bits/sec rcvd" 609.6
scalar IoTCommunication.baseStation.eth[0].mac "rx channel idle (%)" 99.9993552
scalar IoTCommunication.baseStation.eth[0].mac "rx channel utilization (%)" 0.0006448
scalar IoTCommunication.baseStation.eth[0].mac rxPausePkUnits:count 0
attr interpolationmode none
attr recordingmode count
attr title "pause units received, count"
scalar IoTCommunication.baseStation.eth[0].mac rxPausePkUnits:sum 0
attr interpolationmode none
attr recordingmode sum
attr title "pause units received, sum"
scalar IoTCommunication.baseStation.eth[0].mac txPausePkUnits:count 0
attr interpolationmode none
attr recordingmode count
attr title "pause units sent, count"
scalar IoTCommunication.baseStation.eth[0].mac txPausePkUnits:sum 0
attr interpolationmode none
attr recordingmode sum
attr title "pause units sent, sum"
scalar IoTCommunication.baseStation.eth[0].mac rxPkOk:count 11
attr interpolationmode none
attr recordingmode count
attr source rxPkOk
attr title "packets received OK, count"
scalar IoTCommunication.baseStation.eth[0].mac rxPkOk:sum(packetBytes) 1524
attr interpolationmode none
attr recordingmode sum(packetBytes)
attr source rxPkOk
attr title "packets received OK, sum(packetBytes)"
scalar IoTCommunication.baseStation.eth[0].mac txPk:count 11
attr interpolationmode none
attr recordingmode count
attr source packetSentToLower
attr title "packets transmitted, count"
scalar IoTCommunication.baseStation.eth[0].mac txPk:sum(packetBytes) 804
attr interpolationmode none
attr recordingmode sum(packetBytes)
attr source packetSentToLower
attr title "packets transmitted, sum(packetBytes)"
scalar IoTCommunication.baseStation.eth[0].mac packetReceivedFromUpper:count 11
attr interpolationmode none
attr recordingmode count
attr source packetReceivedFromUpper
attr title "packet bytes from higher layer, count"
scalar IoTCommunication.baseStation.eth[0].mac packetReceivedFromUpper:sum(packetBytes) 786
attr interpolationmode none
attr recordingmode sum(packetBytes)
attr source packetReceivedFromUpper
attr title "packet bytes from higher layer, sum(packetBytes)"
scalar IoTCommunication.baseStation.eth[0].mac passedUpPk:count 11
attr interpolationmode none
attr recordingmode count
attr source packetSentToUpper
attr title "packets passed to higher layer, count"
scalar IoTCommunication.baseStation.eth[0].mac passedUpPk:sum(packetBytes) 1524
attr interpolationmode none
attr recordingmode sum(packetBytes)
attr source packetSentToUpper
attr title "packets passed to higher layer, sum(packetBytes)"
scalar IoTCommunication.baseStation.eth[0].mac packetDropIncorrectlyReceived:count 0
attr interpolationmode none
attr recordingmode count
attr source packetDropReasonIsIncorrectlyReceived(packetDropped)
attr title "packet drop: incorrectly received, count"
scalar IoTCommunication.baseStation.eth[0].mac packetDropIncorrectlyReceived:sum(packetBytes) 0
attr interpolationmode none
attr recordingmode sum(packetBytes)
attr source packetDropReasonIsIncorrectlyReceived(packetDropped)
attr title "packet drop: incorrectly received, sum(packetBytes)"
scalar IoTCommunication.baseStation.eth[0].mac packetDropInterfaceDown:count 0
attr interpolationmode none
attr recordingmode count
attr source packetDropReasonIsInterfaceDown(packetDropped)
attr title "packet drop: interface down, count"
scalar IoTCommunication.baseStation.eth[0].mac packetDropInterfaceDown:sum(packetBytes) 0
attr interpolationmode none
attr recordingmode sum(packetBytes)
attr source packetDropReasonIsInterfaceDown(packetDropped)
attr title "packet drop: interface down, sum(packetBytes)"
scalar IoTCommunication.baseStation.eth[0].mac packetDropNotAddressedToUs:count 0
attr interpolationmode none
attr recordingmode count
attr source packetDropReasonIsNotAddressedToUs(packetDropped)
attr title "packet drop: not addressed to us, count"
scalar IoTCommunication.baseStation.eth[0].mac packetDropNotAddressedToUs:sum(packetBytes) 0
attr interpolationmode none
attr recordingmode sum(packetBytes)
attr source packetDropReasonIsNotAddressedToUs(packetDropped)
attr title "packet drop: not addressed to us, sum(packetBytes)"
par IoTCommunication.baseStation.eth[0] typename "\"inet.linklayer.ethernet.EthernetInterface\""
par IoTCommunication.baseStation.eth[0] displayStringTextFormat "\"%a (%i)\\n%m\""
par IoTCommunication.baseStation.eth[0] recordPcap false
par IoTCommunication.baseStation.eth[0] numPcapRecorders 0
par IoTCommunication.baseStation.eth[0] interfaceTableModule "\"IoTCommunication.baseStation.interfaceTable\""
par IoTCommunication.baseStation.eth[0] protocol "\"ethernetmac\""
par IoTCommunication.baseStation.eth[0] address "\"0A-AA-00-00-00-02\""
attr mutable ""
par IoTCommunication.baseStation.eth[0] duplexMode true
par IoTCommunication.baseStation.eth[0] csmacdSupport false
par IoTCommunication.baseStation.eth[0] bitrate 0bps
attr unit bps
par IoTCommunication.baseStation.eth[0] fcsMode "\"declared\""
attr enum declared,computed
scalar IoTCommunication.baseStation.eth[0] packetDropInterfaceDown:count 0
attr interpolationmode none
attr recordingmode count
attr source packetDropReasonIsInterfaceDown(packetDropped)
attr title "packet drops: interface down, count"
scalar IoTCommunication.baseStation.eth[0] packetDropInterfaceDown:sum(packetBytes) 0
attr interpolationmode none
attr recordingmode sum(packetBytes)
attr source packetDropReasonIsInterfaceDown(packetDropped)
attr title "packet drops: interface down, sum(packetBytes)"
scalar IoTCommunication.baseStation.eth[0] packetDropNoCarrier:count 0
attr interpolationmode none
attr recordingmode count
attr source packetDropReasonIsNoCarrier(packetDropped)
attr title "packet drops: no carrier, count"
scalar IoTCommunication.baseStation.eth[0] packetDropNoCarrier:sum(packetBytes) 0
attr interpolationmode none
attr recordingmode sum(packetBytes)
attr source packetDropReasonIsNoCarrier(packetDropped)
attr title "packet drops: no carrier, sum(packetBytes)"
par IoTCommunication.baseStation.eth[1].mac.phys$o.channel typename "\"ned.IdealChannel\""
par IoTCommunication.baseStation.eth[1].phys$i.channel typename "\"ned.IdealChannel\""
par IoTCommunication.baseStation.eth[1].upperLayerIn.channel typename "\"ned.IdealChannel\""
par IoTCommunication.baseStation.eth[1].mac.upperLayerOut.channel typename "\"ned.IdealChannel\""
par IoTCommunication.baseStation.eth[1].queue typename "\"inet.linklayer.ethernet.common.EthernetQueue\""
par IoTCommunication.baseStation.eth[1].queue displayStringTextFormat "\"contains %p pk (%l) pushed %u\\npulled %o removed %r dropped %d\""
par IoTCommunication.baseStation.eth[1].queue packetCapacity 1000
par IoTCommunication.baseStation.eth[1].queue dataCapacity -1b
attr unit b
par IoTCommunication.baseStation.eth[1].queue dropperClass "\"inet::queueing::PacketAtCollectionEndDropper\""
par IoTCommunication.baseStation.eth[1].queue comparatorClass "\"inet::EthernetFrameTypeComparator\""
par IoTCommunication.baseStation.eth[1].queue bufferModule "\"\""
scalar IoTCommunication.baseStation.eth[1].queue queueLength:last 0
attr autoWarmupFilter false
attr interpolationmode sample-hold
attr recordingmode last
attr source "warmup(atomic(constant0(packetPushEnded) + count(packetPushStarted) - count(packetPulled) - count(packetRemoved) - count(packetDropped)))"
attr title "queue length, last"
attr unit pk
scalar IoTCommunication.baseStation.eth[1].queue queueLength:max 0
attr autoWarmupFilter false
attr interpolationmode sample-hold
attr recordingmode max
attr source "warmup(atomic(constant0(packetPushEnded) + count(packetPushStarted) - count(packetPulled) - count(packetRemoved) - count(packetDropped)))"
attr title "queue length, max"
attr unit pk
scalar IoTCommunication.baseStation.eth[1].queue queueLength:timeavg 0
attr autoWarmupFilter false
attr interpolationmode sample-hold
attr recordingmode timeavg
attr source "warmup(atomic(constant0(packetPushEnded) + count(packetPushStarted) - count(packetPulled) - count(packetRemoved) - count(packetDropped)))"
attr title "queue length, timeavg"
attr unit pk
scalar IoTCommunication.baseStation.eth[1].queue queueBitLength:last 0
attr autoWarmupFilter false
attr interpolationmode sample-hold
attr recordingmode last
attr source "warmup(atomic(constant0(packetPushEnded) + sum(packetLength(packetPushStarted)) - sum(packetLength(packetPulled)) - sum(packetLength(packetRemoved)) - sum(packetLength(packetDropped))))"
attr title "queue bit length, last"
attr unit b
scalar IoTCommunication.baseStation.eth[1].queue queueBitLength:max 0
attr autoWarmupFilter false
attr interpolationmode sample-hold
attr recordingmode max
attr source "warmup(atomic(constant0(packetPushEnded) + sum(packetLength(packetPushStarted)) - sum(packetLength(packetPulled)) - sum(packetLength(packetRemoved)) - sum(packetLength(packetDropped))))"
attr title "queue bit length, max"
attr unit b
scalar IoTCommunication.baseStation.eth[1].queue queueBitLength:timeavg 0
attr autoWarmupFilter false
attr interpolationmode sample-hold
attr recordingmode timeavg
attr source "warmup(atomic(constant0(packetPushEnded) + sum(packetLength(packetPushStarted)) - sum(packetLength(packetPulled)) - sum(packetLength(packetRemoved)) - sum(packetLength(packetDropped))))"
attr title "queue bit length, timeavg"
attr unit b
statistic IoTCommunication.baseStation.eth[1].queue queueingTime:histogram
field count 8
field mean 0
field stddev 0
field min 0
field max 0
field sum 0
field sqrsum 0
attr interpolationmode none
attr recordingmode histogram
attr source queueingTime(packetPulled)
attr title "queueing times"
attr unit s
bin	-inf	0
bin	-0.5	0
bin	-0.48	0
bin	-0.46	0
bin	-0.44	0
bin	-0.42	0
bin	-0.4	0
bin	-0.38	0
bin	-0.36	0
bin	-0.34	0
bin	-0.32	0
bin	-0.3	0
bin	-0.28	0
bin	-0.26	0
bin	-0.24	0
bin	-0.22	0
bin	-0.2	0
bin	-0.18	0
bin	-0.16	0
bin	-0.14	0
bin	-0.12	0
bin	-0.1	0
bin	-0.08	0
bin	-0.06	0
bin	-0.04	0
bin	-0.02	0
bin	0	8
bin	0.02	0
bin	0.04	0
bin	0.06	0
bin	0.08	0
bin	0.1	0
bin	0.12	0
bin	0.14	0
bin	0.16	0
bin	0.18	0
bin	0.2	0
bin	0.22	0
bin	0.24	0
bin	0.26	0
bin	0.28	0
bin	0.3	0
bin	0.32	0
bin	0.34	0
bin	0.36	0
bin	0.38	0
bin	0.4	0
bin	0.42	0
bin	0.44	0
bin	0.46	0
bin	0.48	0
bin	0.5	0
scalar IoTCommunication.baseStation.eth[1].queue outgoingPackets:count 8
attr recordingmode count
attr source packetPulled
attr title "outgoing packets, count"
attr unit pk
scalar IoTCommunication.baseStation.eth[1].queue outgoingPacketLengths:sum 4512
attr interpolationmode none
attr recordingmode sum
attr source packetLength(packetPulled)
attr title "outgoing packet lengths, sum"
attr unit b
statistic IoTCommunication.baseStation.eth[1].queue outgoingPacketLengths:histogram
field count 8
field mean 564
field stddev 79.195959492893
field min 368
field max 592
field sum 4512
field sqrsum 2588672
attr interpolationmode none
attr recordingmode histogram
attr source packetLength(packetPulled)
attr title "outgoing packet lengths"
attr unit b
bin	-inf	0
bin	310	0
bin	315	0
bin	320	0
bin	325	0
bin	330	0
bin	335	0
bin	340	0
bin	345	0
bin	350	0
bin	355	0
bin	360	0
bin	365	1
bin	370	0
bin	375	0
bin	380	0
bin	385	0
bin	390	0
bin	395	0
bin	400	0
bin	405	0
bin	410	0
bin	415	0
bin	420	0
bin	425	0
bin	430	0
bin	435	0
bin	440	0
bin	445	0
bin	450	0
bin	455	0
bin	460	0
bin	465	0
bin	470	0
bin	475	0
bin	480	0
bin	485	0
bin	490	0
bin	495	0
bin	500	0
bin	505	0
bin	510	0
bin	515	0
bin	520	0
bin	525	0
bin	530	0
bin	535	0
bin	540	0
bin	545	0
bin	550	0
bin	555	0
bin	560	0
bin	565	0
bin	570	0
bin	575	0
bin	580	0
bin	585	0
bin	590	7
bin	595	0
bin	600	0
bin	605	0
bin	610	0
bin	615	0
bin	620	0
bin	625	0
bin	630	0
bin	635	0
bin	640	0
bin	645	0
bin	650	0
statistic IoTCommunication.baseStation.eth[1].queue flowQueueingTime:histogram
field count 0
field mean -nan
field stddev nan
field min nan
field max nan
field sum 0
field sqrsum 0
attr interpolationmode none
attr recordingmode histogram
attr source queueingTime(demuxFlow(packetPulled))
attr title "flow queueing times"
attr unit s
bin	-inf	0
bin	0	0
bin	1	0
scalar IoTCommunication.baseStation.eth[1].queue incomingPackets:count 8
attr recordingmode count
attr source packetPushStarted
attr title "incoming packets, count"
attr unit pk
scalar IoTCommunication.baseStation.eth[1].queue incomingPacketLengths:sum 4512
attr interpolationmode none
attr recordingmode sum
attr source packetLength(packetPushStarted)
attr title "incoming packet lengths, sum"
attr unit b
statistic IoTCommunication.baseStation.eth[1].queue incomingPacketLengths:histogram
field count 8
field mean 564
field stddev 79.195959492893
field min 368
field max 592
field sum 4512
field sqrsum 2588672
attr interpolationmode none
attr recordingmode histogram
attr source packetLength(packetPushStarted)
attr title "incoming packet lengths"
attr unit b
bin	-inf	0
bin	310	0
bin	315	0
bin	320	0
bin	325	0
bin	330	0
bin	335	0
bin	340	0
bin	345	0
bin	350	0
bin	355	0
bin	360	0
bin	365	1
bin	370	0
bin	375	0
bin	380	0
bin	385	0
bin	390	0
bin	395	0
bin	400	0
bin	405	0
bin	410	0
bin	415	0
bin	420	0
bin	425	0
bin	430	0
bin	435	0
bin	440	0
bin	445	0
bin	450	0
bin	455	0
bin	460	0
bin	465	0
bin	470	0
bin	475	0
bin	480	0
bin	485	0
bin	490	0
bin	495	0
bin	500	0
bin	505	0
bin	510	0
bin	515	0
bin	520	0
bin	525	0
bin	530	0
bin	535	0
bin	540	0
bin	545	0
bin	550	0
bin	555	0
bin	560	0
bin	565	0
bin	570	0
bin	575	0
bin	580	0
bin	585	0
bin	590	7
bin	595	0
bin	600	0
bin	605	0
bin	610	0
bin	615	0
bin	620	0
bin	625	0
bin	630	0
bin	635	0
bin	640	0
bin	645	0
bin	650	0
scalar IoTCommunication.baseStation.eth[1].queue droppedPacketsQueueOverflow:count 0
attr interpolationmode none
attr recordingmode count
attr source packetDropReasonIsQueueOverflow(packetDropped)
attr title "dropped packets: queue overflow, count"
attr unit pk
scalar IoTCommunication.baseStation.eth[1].queue droppedPacketLengthsQueueOverflow:sum 0
attr interpolationmode none
attr recordingmode sum
attr source packetLength(packetDropReasonIsQueueOverflow(packetDropped))
attr title "dropped packet lengths: queue overflow, sum"
attr unit b
par IoTCommunication.baseStation.eth[1].mac typename "\"inet.linklayer.ethernet.basic.EthernetMac\""
par IoTCommunication.baseStation.eth[1].mac interfaceTableModule "\"IoTCommunication.baseStation.interfaceTable\""
par IoTCommunication.baseStation.eth[1].mac displayStringTextFormat "\"rate: %b\\nsent: %s, rcvd: %r\\nqueue: %q, drop: %d\""
par IoTCommunication.baseStation.eth[1].mac sendRawBytes false
par IoTCommunication.baseStation.eth[1].mac promiscuous false
par IoTCommunication.baseStation.eth[1].mac duplexMode true
par IoTCommunication.baseStation.eth[1].mac mtu 1500B
attr unit B
par IoTCommunication.baseStation.eth[1].mac fcsMode "\"declared\""
attr enum declared,computed
par IoTCommunication.baseStation.eth[1].mac stopOperationExtraTime -1s
attr unit s
par IoTCommunication.baseStation.eth[1].mac stopOperationTimeout 2s
attr unit s
scalar IoTCommunication.baseStation.eth[1].mac "simulated time" 20
scalar IoTCommunication.baseStation.eth[1].mac full-duplex 1
scalar IoTCommunication.baseStation.eth[1].mac "frames/sec sent" 0.4
scalar IoTCommunication.baseStation.eth[1].mac "frames/sec rcvd" 0.4
scalar IoTCommunication.baseStation.eth[1].mac "bits/sec sent" 232.8
scalar IoTCommunication.baseStation.eth[1].mac "bits/sec rcvd" 714.4
scalar IoTCommunication.baseStation.eth[1].mac "rx channel idle (%)" 99.99926
scalar IoTCommunication.baseStation.eth[1].mac "rx channel utilization (%)" 0.00074
scalar IoTCommunication.baseStation.eth[1].mac rxPausePkUnits:count 0
attr interpolationmode none
attr recordingmode count
attr title "pause units received, count"
scalar IoTCommunication.baseStation.eth[1].mac rxPausePkUnits:sum 0
attr interpolationmode none
attr recordingmode sum
attr title "pause units received, sum"
scalar IoTCommunication.baseStation.eth[1].mac txPausePkUnits:count 0
attr interpolationmode none
attr recordingmode count
attr title "pause units sent, count"
scalar IoTCommunication.baseStation.eth[1].mac txPausePkUnits:sum 0
attr interpolationmode none
attr recordingmode sum
attr title "pause units sent, sum"
scalar IoTCommunication.baseStation.eth[1].mac rxPkOk:count 8
attr interpolationmode none
attr recordingmode count
attr source rxPkOk
attr title "packets received OK, count"
scalar IoTCommunication.baseStation.eth[1].mac rxPkOk:sum(packetBytes) 1786
attr interpolationmode none
attr recordingmode sum(packetBytes)
attr source rxPkOk
attr title "packets received OK, sum(packetBytes)"
scalar IoTCommunication.baseStation.eth[1].mac txPk:count 8
attr interpolationmode none
attr recordingmode count
attr source packetSentToLower
attr title "packets transmitted, count"
scalar IoTCommunication.baseStation.eth[1].mac txPk:sum(packetBytes) 582
attr interpolationmode none
attr recordingmode sum(packetBytes)
attr source packetSentToLower
attr title "packets transmitted, sum(packetBytes)"
scalar IoTCommunication.baseStation.eth[1].mac packetReceivedFromUpper:count 8
attr interpolationmode none
attr recordingmode count
attr source packetReceivedFromUpper
attr title "packet bytes from higher layer, count"
scalar IoTCommunication.baseStation.eth[1].mac packetReceivedFromUpper:sum(packetBytes) 564
attr interpolationmode none
attr recordingmode sum(packetBytes)
attr source packetReceivedFromUpper
attr title "packet bytes from higher layer, sum(packetBytes)"
scalar IoTCommunication.baseStation.eth[1].mac passedUpPk:count 8
attr interpolationmode none
attr recordingmode count
attr source packetSentToUpper
attr title "packets passed to higher layer, count"
scalar IoTCommunication.baseStation.eth[1].mac passedUpPk:sum(packetBytes) 1786
attr interpolationmode none
attr recordingmode sum(packetBytes)
attr source packetSentToUpper
attr title "packets passed to higher layer, sum(packetBytes)"
scalar IoTCommunication.baseStation.eth[1].mac packetDropIncorrectlyReceived:count 0
attr interpolationmode none
attr recordingmode count
attr source packetDropReasonIsIncorrectlyReceived(packetDropped)
attr title "packet drop: incorrectly received, count"
scalar IoTCommunication.baseStation.eth[1].mac packetDropIncorrectlyReceived:sum(packetBytes) 0
attr interpolationmode none
attr recordingmode sum(packetBytes)
attr source packetDropReasonIsIncorrectlyReceived(packetDropped)
attr title "packet drop: incorrectly received, sum(packetBytes)"
scalar IoTCommunication.baseStation.eth[1].mac packetDropInterfaceDown:count 0
attr interpolationmode none
attr recordingmode count
attr source packetDropReasonIsInterfaceDown(packetDropped)
attr title "packet drop: interface down, count"
scalar IoTCommunication.baseStation.eth[1].mac packetDropInterfaceDown:sum(packetBytes) 0
attr interpolationmode none
attr recordingmode sum(packetBytes)
attr source packetDropReasonIsInterfaceDown(packetDropped)
attr title "packet drop: interface down, sum(packetBytes)"
scalar IoTCommunication.baseStation.eth[1].mac packetDropNotAddressedToUs:count 0
attr interpolationmode none
attr recordingmode count
attr source packetDropReasonIsNotAddressedToUs(packetDropped)
attr title "packet drop: not addressed to us, count"
scalar IoTCommunication.baseStation.eth[1].mac packetDropNotAddressedToUs:sum(packetBytes) 0
attr interpolationmode none
attr recordingmode sum(packetBytes)
attr source packetDropReasonIsNotAddressedToUs(packetDropped)
attr title "packet drop: not addressed to us, sum(packetBytes)"
par IoTCommunication.baseStation.eth[1] typename "\"inet.linklayer.ethernet.EthernetInterface\""
par IoTCommunication.baseStation.eth[1] displayStringTextFormat "\"%a (%i)\\n%m\""
par IoTCommunication.baseStation.eth[1] recordPcap false
par IoTCommunication.baseStation.eth[1] numPcapRecorders 0
par IoTCommunication.baseStation.eth[1] interfaceTableModule "\"IoTCommunication.baseStation.interfaceTable\""
par IoTCommunication.baseStation.eth[1] protocol "\"ethernetmac\""
par IoTCommunication.baseStation.eth[1] address "\"0A-AA-00-00-00-03\""
attr mutable ""
par IoTCommunication.baseStation.eth[1] duplexMode true
par IoTCommunication.baseStation.eth[1] csmacdSupport false
par IoTCommunication.baseStation.eth[1] bitrate 0bps
attr unit bps
par IoTCommunication.baseStation.eth[1] fcsMode "\"declared\""
attr enum declared,computed
scalar IoTCommunication.baseStation.eth[1] packetDropInterfaceDown:count 0
attr interpolationmode none
attr recordingmode count
attr source packetDropReasonIsInterfaceDown(packetDropped)
attr title "packet drops: interface down, count"
scalar IoTCommunication.baseStation.eth[1] packetDropInterfaceDown:sum(packetBytes) 0
attr interpolationmode none
attr recordingmode sum(packetBytes)
attr source packetDropReasonIsInterfaceDown(packetDropped)
attr title "packet drops: interface down, sum(packetBytes)"
scalar IoTCommunication.baseStation.eth[1] packetDropNoCarrier:count 0
attr interpolationmode none
attr recordingmode count
attr source packetDropReasonIsNoCarrier(packetDropped)
attr title "packet drops: no carrier, count"
scalar IoTCommunication.baseStation.eth[1] packetDropNoCarrier:sum(packetBytes) 0
attr interpolationmode none
attr recordingmode sum(packetBytes)
attr source packetDropReasonIsNoCarrier(packetDropped)
attr title "packet drops: no carrier, sum(packetBytes)"
par IoTCommunication.baseStation.eth[2].mac.phys$o.channel typename "\"ned.IdealChannel\""
par IoTCommunication.baseStation.eth[2].phys$i.channel typename "\"ned.IdealChannel\""
par IoTCommunication.baseStation.eth[2].upperLayerIn.channel typename "\"ned.IdealChannel\""
par IoTCommunication.baseStation.eth[2].mac.upperLayerOut.channel typename "\"ned.IdealChannel\""
par IoTCommunication.baseStation.eth[2].queue typename "\"inet.linklayer.ethernet.common.EthernetQueue\""
par IoTCommunication.baseStation.eth[2].queue displayStringTextFormat "\"contains %p pk (%l) pushed %u\\npulled %o removed %r dropped %d\""
par IoTCommunication.baseStation.eth[2].queue packetCapacity 1000
par IoTCommunication.baseStation.eth[2].queue dataCapacity -1b
attr unit b
par IoTCommunication.baseStation.eth[2].queue dropperClass "\"inet::queueing::PacketAtCollectionEndDropper\""
par IoTCommunication.baseStation.eth[2].queue comparatorClass "\"inet::EthernetFrameTypeComparator\""
par IoTCommunication.baseStation.eth[2].queue bufferModule "\"\""
scalar IoTCommunication.baseStation.eth[2].queue queueLength:last 0
attr autoWarmupFilter false
attr interpolationmode sample-hold
attr recordingmode last
attr source "warmup(atomic(constant0(packetPushEnded) + count(packetPushStarted) - count(packetPulled) - count(packetRemoved) - count(packetDropped)))"
attr title "queue length, last"
attr unit pk
scalar IoTCommunication.baseStation.eth[2].queue queueLength:max 0
attr autoWarmupFilter false
attr interpolationmode sample-hold
[...]
par IoTCommunication.iotDevice[1].ipv4.transportIn.channel typename "\"ned.IdealChannel\""
par IoTCommunication.iotDevice[1].ipv4.up.out[0].channel typename "\"ned.IdealChannel\""
par IoTCommunication.iotDevice[1].ipv4.lp.out[2].channel typename "\"ned.IdealChannel\""
par IoTCommunication.iotDevice[1].ipv4.ifIn.channel typename "\"ned.IdealChannel\""
par IoTCommunication.iotDevice[1].ipv4.configurator typename "\"inet.networklayer.configurator.ipv4.Ipv4NodeConfigurator\""
par IoTCommunication.iotDevice[1].ipv4.configurator interfaceTableModule "\"IoTCommunication.iotDevice[1].interfaceTable\""
par IoTCommunication.iotDevice[1].ipv4.configurator routingTableModule "\"IoTCommunication.iotDevice[1].ipv4.routingTable\""
par IoTCommunication.iotDevice[1].ipv4.configurator networkConfiguratorModule "\"configurator\""
par IoTCommunication.iotDevice[1].ipv4.configurator configureRoutingTable true
par IoTCommunication.iotDevice[1].ipv4.routingTable typename "\"inet.networklayer.ipv4.Ipv4RoutingTable\""
par IoTCommunication.iotDevice[1].ipv4.routingTable interfaceTableModule "\"IoTCommunication.iotDevice[1].interfaceTable\""
par IoTCommunication.iotDevice[1].ipv4.routingTable routerId "\"auto\""
par IoTCommunication.iotDevice[1].ipv4.routingTable netmaskRoutes "\"*\""
par IoTCommunication.iotDevice[1].ipv4.routingTable forwarding false
par IoTCommunication.iotDevice[1].ipv4.routingTable multicastForwarding false
par IoTCommunication.iotDevice[1].ipv4.routingTable useAdminDist false
par IoTCommunication.iotDevice[1].ipv4.routingTable routingFile "\"\""
par IoTCommunication.iotDevice[1].ipv4.natTable typename "\"inet.networklayer.ipv4.Ipv4NatTable\""
par IoTCommunication.iotDevice[1].ipv4.natTable networkProtocolModule "\"^.ip\""
par IoTCommunication.iotDevice[1].ipv4.natTable config "<config/> at content:1"
par IoTCommunication.iotDevice[1].ipv4.up typename "\"inet.common.MessageDispatcher\""
par IoTCommunication.iotDevice[1].ipv4.up displayStringTextFormat "\"processed %p pk (%l)\""
par IoTCommunication.iotDevice[1].ipv4.up forwardServiceRegistration true
par IoTCommunication.iotDevice[1].ipv4.up forwardProtocolRegistration true
par IoTCommunication.iotDevice[1].ipv4.igmp typename "\"inet.networklayer.ipv4.Igmpv2\""
par IoTCommunication.iotDevice[1].ipv4.igmp interfaceTableModule "\"IoTCommunication.iotDevice[1].interfaceTable\""
par IoTCommunication.iotDevice[1].ipv4.igmp routingTableModule "\"IoTCommunication.iotDevice[1].ipv4.routingTable\""
par IoTCommunication.iotDevice[1].ipv4.igmp crcMode "\"declared\""
attr enum declared,computed
par IoTCommunication.iotDevice[1].ipv4.igmp enabled true
par IoTCommunication.iotDevice[1].ipv4.igmp robustnessVariable 2
par IoTCommunication.iotDevice[1].ipv4.igmp queryInterval 125s
attr unit s
par IoTCommunication.iotDevice[1].ipv4.igmp queryResponseInterval 10s
attr unit s
par IoTCommunication.iotDevice[1].ipv4.igmp groupMembershipInterval 260s
attr unit s
par IoTCommunication.iotDevice[1].ipv4.igmp otherQuerierPresentInterval 255s
attr unit s
par IoTCommunication.iotDevice[1].ipv4.igmp startupQueryInterval 31.25s
attr unit s
par IoTCommunication.iotDevice[1].ipv4.igmp startupQueryCount 2
par IoTCommunication.iotDevice[1].ipv4.igmp lastMemberQueryInterval 1s
attr unit s
par IoTCommunication.iotDevice[1].ipv4.igmp lastMemberQueryCount 2
par IoTCommunication.iotDevice[1].ipv4.igmp unsolicitedReportInterval 10s
attr unit s
par IoTCommunication.iotDevice[1].ipv4.icmp typename "\"inet.networklayer.ipv4.Icmp\""
par IoTCommunication.iotDevice[1].ipv4.icmp interfaceTableModule "\"IoTCommunication.iotDevice[1].interfaceTable\""
par IoTCommunication.iotDevice[1].ipv4.icmp routingTableModule "\"IoTCommunication.iotDevice[1].ipv4.routingTable\""
par IoTCommunication.iotDevice[1].ipv4.icmp crcMode "\"declared\""
attr enum declared,computed
attr mutable ""
par IoTCommunication.iotDevice[1].ipv4.icmp quoteLength 8B
attr mutable ""
attr unit B
par IoTCommunication.iotDevice[1].ipv4.mp typename "\"inet.common.MessageDispatcher\""
par IoTCommunication.iotDevice[1].ipv4.mp displayStringTextFormat "\"processed %p pk (%l)\""
par IoTCommunication.iotDevice[1].ipv4.mp forwardServiceRegistration true
par IoTCommunication.iotDevice[1].ipv4.mp forwardProtocolRegistration true
par IoTCommunication.iotDevice[1].ipv4.ip typename "\"inet.networklayer.ipv4.Ipv4\""
par IoTCommunication.iotDevice[1].ipv4.ip interfaceTableModule "\"IoTCommunication.iotDevice[1].interfaceTable\""
par IoTCommunication.iotDevice[1].ipv4.ip routingTableModule "\"IoTCommunication.iotDevice[1].ipv4.routingTable\""
par IoTCommunication.iotDevice[1].ipv4.ip arpModule "\"IoTCommunication.iotDevice[1].ipv4.arp\""
par IoTCommunication.iotDevice[1].ipv4.ip icmpModule "\"IoTCommunication.iotDevice[1].ipv4.icmp\""
par IoTCommunication.iotDevice[1].ipv4.ip crcMode "\"declared\""
attr enum declared,computed
par IoTCommunication.iotDevice[1].ipv4.ip timeToLive 32
par IoTCommunication.iotDevice[1].ipv4.ip multicastTimeToLive 32
par IoTCommunication.iotDevice[1].ipv4.ip fragmentTimeout 60s
attr unit s
par IoTCommunication.iotDevice[1].ipv4.ip limitedBroadcast false
par IoTCommunication.iotDevice[1].ipv4.ip directBroadcastInterfaces "\"\""
scalar IoTCommunication.iotDevice[1].ipv4.ip packetDropAddressResolutionFailed:count 0
attr interpolationmode none
attr recordingmode count
attr source packetDropReasonIsAddressResolutionFailed(packetDropped)
attr title "packet drop: address resolution failed, count"
scalar IoTCommunication.iotDevice[1].ipv4.ip packetDropAddressResolutionFailed:sum(packetBytes) 0
attr interpolationmode none
attr recordingmode sum(packetBytes)
attr source packetDropReasonIsAddressResolutionFailed(packetDropped)
attr title "packet drop: address resolution failed, sum(packetBytes)"
scalar IoTCommunication.iotDevice[1].ipv4.ip packetDropHopLimitReached:count 0
attr interpolationmode none
attr recordingmode count
attr source packetDropReasonIsHopLimitReached(packetDropped)
attr title "packet drop: hop limit reached, count"
scalar IoTCommunication.iotDevice[1].ipv4.ip packetDropHopLimitReached:sum(packetBytes) 0
attr interpolationmode none
attr recordingmode sum(packetBytes)
attr source packetDropReasonIsHopLimitReached(packetDropped)
attr title "packet drop: hop limit reached, sum(packetBytes)"
scalar IoTCommunication.iotDevice[1].ipv4.ip packetDropForwardingDisabled:count 0
attr interpolationmode none
attr recordingmode count
attr source packetDropReasonIsForwardingDisabled(packetDropped)
attr title "packet drop: forwarding disabled, count"
scalar IoTCommunication.iotDevice[1].ipv4.ip packetDropForwardingDisabled:sum(packetBytes) 0
attr interpolationmode none
attr recordingmode sum(packetBytes)
attr source packetDropReasonIsForwardingDisabled(packetDropped)
attr title "packet drop: forwarding disabled, sum(packetBytes)"
scalar IoTCommunication.iotDevice[1].ipv4.ip packetDropNoInterfaceFound:count 0
attr interpolationmode none
attr recordingmode count
attr source packetDropReasonIsNoInterfaceFound(packetDropped)
attr title "packet drop: no interface found, count"
scalar IoTCommunication.iotDevice[1].ipv4.ip packetDropNoInterfaceFound:sum(packetBytes) 0
attr interpolationmode none
attr recordingmode sum(packetBytes)
attr source packetDropReasonIsNoInterfaceFound(packetDropped)
attr title "packet drop: no interface found, sum(packetBytes)"
scalar IoTCommunication.iotDevice[1].ipv4.ip packetDropNoRouteFound:count 0
attr interpolationmode none
attr recordingmode count
attr source packetDropReasonIsNoRouteFound(packetDropped)
attr title "packet drop: no route found, count"
scalar IoTCommunication.iotDevice[1].ipv4.ip packetDropNoRouteFound:sum(packetBytes) 0
attr interpolationmode none
attr recordingmode sum(packetBytes)
attr source packetDropReasonIsNoRouteFound(packetDropped)
attr title "packet drop: no route found, sum(packetBytes)"
scalar IoTCommunication.iotDevice[1].ipv4.ip packetDropUndefined:count 0
attr interpolationmode none
attr recordingmode count
attr source packetDropReasonIsUndefined(packetDropped)
attr title "packet drop: undefined, count"
scalar IoTCommunication.iotDevice[1].ipv4.ip packetDropUndefined:sum(packetBytes) 0
attr interpolationmode none
attr recordingmode sum(packetBytes)
attr source packetDropReasonIsUndefined(packetDropped)
attr title "packet drop: undefined, sum(packetBytes)"
par IoTCommunication.iotDevice[1].ipv4.arp typename "\"inet.networklayer.arp.ipv4.Arp\""
par IoTCommunication.iotDevice[1].ipv4.arp interfaceTableModule "\"IoTCommunication.iotDevice[1].interfaceTable\""
par IoTCommunication.iotDevice[1].ipv4.arp routingTableModule "\"IoTCommunication.iotDevice[1].ipv4.routingTable\""
par IoTCommunication.iotDevice[1].ipv4.arp retryTimeout 1s
attr unit s
par IoTCommunication.iotDevice[1].ipv4.arp retryCount 3
par IoTCommunication.iotDevice[1].ipv4.arp cacheTimeout 120s
attr unit s
par IoTCommunication.iotDevice[1].ipv4.arp proxyArpInterfaces "\"\""
scalar IoTCommunication.iotDevice[1].ipv4.arp arpResolutionFailed:count 0
attr recordingmode count
attr title "ARP failed resolutions, count"
scalar IoTCommunication.iotDevice[1].ipv4.arp arpResolutionCompleted:count 1
attr recordingmode count
attr title "ARP completed resolutions, count"
scalar IoTCommunication.iotDevice[1].ipv4.arp arpResolutionInitiated:count 1
attr recordingmode count
attr title "ARP initiated resolutions, count"
scalar IoTCommunication.iotDevice[1].ipv4.arp arpReplySent:count 0
attr recordingmode count
attr source arpReplySent
attr title "ARP replies sent, count"
scalar IoTCommunication.iotDevice[1].ipv4.arp arpReplySent:sum(packetBytes) 0
attr recordingmode sum(packetBytes)
attr source arpReplySent
attr title "ARP replies sent, sum(packetBytes)"
scalar IoTCommunication.iotDevice[1].ipv4.arp arpRequestSent:count 1
attr recordingmode count
attr source arpRequestSent
attr title "ARP request sent, count"
scalar IoTCommunication.iotDevice[1].ipv4.arp arpRequestSent:sum(packetBytes) 28
attr recordingmode sum(packetBytes)
attr source arpRequestSent
attr title "ARP request sent, sum(packetBytes)"
par IoTCommunication.iotDevice[1].ipv4.lp typename "\"inet.common.MessageDispatcher\""
par IoTCommunication.iotDevice[1].ipv4.lp displayStringTextFormat "\"processed %p pk (%l)\""
par IoTCommunication.iotDevice[1].ipv4.lp forwardServiceRegistration true
par IoTCommunication.iotDevice[1].ipv4.lp forwardProtocolRegistration true
par IoTCommunication.iotDevice[1].ipv4 typename "\"inet.networklayer.ipv4.Ipv4NetworkLayer\""
par IoTCommunication.iotDevice[1].ipv4 forwarding false
par IoTCommunication.iotDevice[1].ipv4 multicastForwarding false
par IoTCommunication.iotDevice[1].ipv4 interfaceTableModule "\"IoTCommunication.iotDevice[1].interfaceTable\""
par IoTCommunication.iotDevice[1].ipv4 displayStringTextFormat "\"%i\""
par IoTCommunication.iotDevice[1].nl typename "\"inet.common.MessageDispatcher\""
par IoTCommunication.iotDevice[1].nl displayStringTextFormat "\"processed %p pk (%l)\""
par IoTCommunication.iotDevice[1].nl forwardServiceRegistration true
par IoTCommunication.iotDevice[1].nl forwardProtocolRegistration true
par IoTCommunication.iotDevice[1].udp typename "\"inet.transportlayer.udp.Udp\""
par IoTCommunication.iotDevice[1].udp interfaceTableModule "\"IoTCommunication.iotDevice[1].interfaceTable\""
par IoTCommunication.iotDevice[1].udp icmpModule "\"^.ipv4.icmp\""
par IoTCommunication.iotDevice[1].udp icmpv6Module "\"^.ipv6.icmpv6\""
par IoTCommunication.iotDevice[1].udp crcMode "\"declared\""
attr enum disabled,declared,computed
par IoTCommunication.iotDevice[1].udp defaultMulticastLoop true
scalar IoTCommunication.iotDevice[1].udp packetReceived:count 0
attr interpolationmode none
attr recordingmode count
attr source packetReceived
attr title "packets received, count"
scalar IoTCommunication.iotDevice[1].udp packetReceived:sum(packetBytes) 0
attr interpolationmode none
attr recordingmode sum(packetBytes)
attr source packetReceived
attr title "packets received, sum(packetBytes)"
scalar IoTCommunication.iotDevice[1].udp packetSent:count 7
attr interpolationmode none
attr recordingmode count
attr source packetSent
attr title "packets sent, count"
scalar IoTCommunication.iotDevice[1].udp packetSent:sum(packetBytes) 1456
attr interpolationmode none
attr recordingmode sum(packetBytes)
attr source packetSent
attr title "packets sent, sum(packetBytes)"
scalar IoTCommunication.iotDevice[1].udp passedUpPk:count 0
attr interpolationmode none
attr recordingmode count
attr source packetSentToUpper
attr title "packets passed up, count"
scalar IoTCommunication.iotDevice[1].udp droppedPkWrongPort:count 0
attr interpolationmode none
attr recordingmode count
attr source packetDropReasonIsNoPortFound(packetDropped)
attr title "packets dropped (wrong port), count"
scalar IoTCommunication.iotDevice[1].udp droppedPkBadChecksum:count 0
attr interpolationmode none
attr recordingmode count
attr source packetDropReasonIsIncorrectlyReceived(packetDropped)
attr title "packets dropped (checksum error), count"
par IoTCommunication.iotDevice[1].tcp typename "\"inet.transportlayer.tcp.Tcp\""
par IoTCommunication.iotDevice[1].tcp crcMode "\"declared\""
attr enum declared,computed
par IoTCommunication.iotDevice[1].tcp advertisedWindow 7504
par IoTCommunication.iotDevice[1].tcp delayedAcksEnabled false
par IoTCommunication.iotDevice[1].tcp nagleEnabled true
par IoTCommunication.iotDevice[1].tcp limitedTransmitEnabled false
par IoTCommunication.iotDevice[1].tcp increasedIWEnabled false
par IoTCommunication.iotDevice[1].tcp sackSupport false
par IoTCommunication.iotDevice[1].tcp windowScalingSupport false
par IoTCommunication.iotDevice[1].tcp windowScalingFactor -1
par IoTCommunication.iotDevice[1].tcp timestampSupport false
par IoTCommunication.iotDevice[1].tcp mss 536
par IoTCommunication.iotDevice[1].tcp msl 120s
attr unit s
par IoTCommunication.iotDevice[1].tcp tcpAlgorithmClass "\"TcpReno\""
par IoTCommunication.iotDevice[1].tcp useDataNotification false
par IoTCommunication.iotDevice[1].tcp dupthresh 3
par IoTCommunication.iotDevice[1].tcp initialSsthresh 4294967295
par IoTCommunication.iotDevice[1].tcp stopOperationExtraTime 0s
attr unit s
par IoTCommunication.iotDevice[1].tcp stopOperationTimeout 2s
attr unit s
par IoTCommunication.iotDevice[1].tcp ecnWillingness false
par IoTCommunication.iotDevice[1].tcp dctcpGamma 0.0625
par IoTCommunication.iotDevice[1].tn typename "\"inet.common.MessageDispatcher\""
par IoTCommunication.iotDevice[1].tn displayStringTextFormat "\"processed %p pk (%l)\""
par IoTCommunication.iotDevice[1].tn forwardServiceRegistration true
par IoTCommunication.iotDevice[1].tn forwardProtocolRegistration true
par IoTCommunication.iotDevice[1].app[0] typename "\"inet.applications.udpapp.UdpBasicApp\""
par IoTCommunication.iotDevice[1].app[0] interfaceTableModule "\"IoTCommunication.iotDevice[1].interfaceTable\""
par IoTCommunication.iotDevice[1].app[0] clockModule "\"\""
par IoTCommunication.iotDevice[1].app[0] localPort -1
par IoTCommunication.iotDevice[1].app[0] destAddresses "\"baseStation\""
par IoTCommunication.iotDevice[1].app[0] localAddress "\"\""
par IoTCommunication.iotDevice[1].app[0] packetName "\"UdpBasicAppData\""
par IoTCommunication.iotDevice[1].app[0] destPort 12346
par IoTCommunication.iotDevice[1].app[0] messageLength 200B
attr unit B
par IoTCommunication.iotDevice[1].app[0] startTime 0.592845s
attr unit s
par IoTCommunication.iotDevice[1].app[0] stopTime 20s
attr unit s
par IoTCommunication.iotDevice[1].app[0] sendInterval 3s
attr unit s
par IoTCommunication.iotDevice[1].app[0] timeToLive -1
par IoTCommunication.iotDevice[1].app[0] dontFragment false
par IoTCommunication.iotDevice[1].app[0] dscp -1
par IoTCommunication.iotDevice[1].app[0] tos -1
par IoTCommunication.iotDevice[1].app[0] multicastInterface "\"\""
par IoTCommunication.iotDevice[1].app[0] receiveBroadcast false
par IoTCommunication.iotDevice[1].app[0] joinLocalMulticastGroups false
par IoTCommunication.iotDevice[1].app[0] stopOperationExtraTime -1s
attr unit s
par IoTCommunication.iotDevice[1].app[0] stopOperationTimeout 2s
attr unit s
scalar IoTCommunication.iotDevice[1].app[0] "packets sent" 7
scalar IoTCommunication.iotDevice[1].app[0] "packets received" 0
scalar IoTCommunication.iotDevice[1].app[0] packetReceived:count 0
attr interpolationmode none
attr recordingmode count
attr source packetReceived
attr title "packets received, count"
scalar IoTCommunication.iotDevice[1].app[0] packetReceived:sum(packetBytes) 0
attr interpolationmode none
attr recordingmode sum(packetBytes)
attr source packetReceived
attr title "packets received, sum(packetBytes)"
statistic IoTCommunication.iotDevice[1].app[0] rcvdPkLifetime:stats
field count 0
field mean -nan
field stddev nan
field min nan
field max nan
field sum 0
field sqrsum 0
attr interpolationmode none
attr recordingmode stats
attr source dataAge(packetReceived)
attr title "received packet lifetime"
attr unit s
scalar IoTCommunication.iotDevice[1].app[0] packetSent:count 7
attr interpolationmode none
attr recordingmode count
attr source packetSent
attr title "packets sent, count"
scalar IoTCommunication.iotDevice[1].app[0] packetSent:sum(packetBytes) 1400
attr interpolationmode none
attr recordingmode sum(packetBytes)
attr source packetSent
attr title "packets sent, sum(packetBytes)"
par IoTCommunication.iotDevice[1].at typename "\"inet.common.MessageDispatcher\""
par IoTCommunication.iotDevice[1].at displayStringTextFormat "\"processed %p pk (%l)\""
par IoTCommunication.iotDevice[1].at forwardServiceRegistration true
par IoTCommunication.iotDevice[1].at forwardProtocolRegistration true
par IoTCommunication.iotDevice[1] typename "\"inet.node.inet.StandardHost\""
par IoTCommunication.iotDevice[1] hasStatus false
par IoTCommunication.iotDevice[1] osgModel "\"\""
par IoTCommunication.iotDevice[1] osgModelColor "\"\""
par IoTCommunication.iotDevice[1] canvasImage "\"\""
par IoTCommunication.iotDevice[1] canvasImageColor "\"\""
par IoTCommunication.iotDevice[1] recordPcap false
par IoTCommunication.iotDevice[1] numPcapRecorders 0
par IoTCommunication.iotDevice[1] numLoInterfaces 1
par IoTCommunication.iotDevice[1] numWlanInterfaces 0
par IoTCommunication.iotDevice[1] numEthInterfaces 1
par IoTCommunication.iotDevice[1] numPppInterfaces 0
par IoTCommunication.iotDevice[1] numTunInterfaces 0
par IoTCommunication.iotDevice[1] numVirtInterfaces 0
par IoTCommunication.iotDevice[1] fcsMode "\"declared\""
attr enum declared,computed
par IoTCommunication.iotDevice[1] hasIpv4 true
par IoTCommunication.iotDevice[1] hasIpv6 false
par IoTCommunication.iotDevice[1] hasGn false
par IoTCommunication.iotDevice[1] forwarding false
par IoTCommunication.iotDevice[1] multicastForwarding false
par IoTCommunication.iotDevice[1] hasUdp true
par IoTCommunication.iotDevice[1] hasTcp true
par IoTCommunication.iotDevice[1] hasSctp false
par IoTCommunication.iotDevice[1] numApps 1
par IoTCommunication.configurator typename "\"inet.networklayer.configurator.ipv4.Ipv4NetworkConfigurator\""
par IoTCommunication.configurator minLinkWeight 0.001
par IoTCommunication.configurator configureIsolatedNetworksSeparatly false
par IoTCommunication.configurator config "<config>...</config> at content:1"
par IoTCommunication.configurator assignAddresses true
par IoTCommunication.configurator assignUniqueAddresses true
par IoTCommunication.configurator assignDisjunctSubnetAddresses true
par IoTCommunication.configurator addStaticRoutes true
par IoTCommunication.configurator addDefaultRoutes true
par IoTCommunication.configurator addSubnetRoutes true
par IoTCommunication.configurator addDirectRoutes true
par IoTCommunication.configurator optimizeRoutes true
par IoTCommunication.configurator dumpTopology false
par IoTCommunication.configurator dumpLinks false
par IoTCommunication.configurator dumpAddresses false
par IoTCommunication.configurator dumpRoutes false
par IoTCommunication.configurator dumpConfig "\"\""
par IoTCommunication typename "\"IoTCommunication\""

