version 3
run General-0-20250107-22:09:06-51616
attr configname General
attr datetime 20250107-22:09:06
attr datetimef 20250107-220906
attr experiment General
attr inifile omnetpp.ini
attr iterationvars ""
attr iterationvarsd ""
attr iterationvarsf ""
attr measurement ""
attr network IoTCommunication
attr processid 51616
attr repetition 0
attr replication #0
attr resultdir results
attr runnumber 0
attr seedset 0
config image-path ../../inet4.5/images
config network IoTCommunication
config sim-time-limit 20s
config *.satellite.mobility.typename StationaryMobility
config *.satellite.mobility.initialX 400m
config *.satellite.mobility.initialY 100m
config *.satellite.mobility.initialZ 500km
config *.baseStation.mobility.typename StationaryMobility
config *.baseStation.mobility.initialX 400m
config *.baseStation.mobility.initialY 300m
config *.baseStation.mobility.initialZ 0m
config *.iotDevice[*].mobility.typename StationaryMobility
config *.iotDevice[0].mobility.initialX 350m
config *.iotDevice[0].mobility.initialY 500m
config *.iotDevice[0].mobility.initialZ 0m
config *.iotDevice[1].mobility.initialX 450m
config *.iotDevice[1].mobility.initialY 500m
config *.iotDevice[1].mobility.initialZ 0m
config *.iotDevice[0].numApps 1
config *.iotDevice[0].app[0].typename UdpBasicApp
config *.iotDevice[0].app[0].destAddresses "\"satellite\""
config *.iotDevice[0].app[0].destPort 12345
config *.iotDevice[0].app[0].startTime "uniform(0s, 1s)"
config *.iotDevice[0].app[0].stopTime 20s
config *.iotDevice[0].app[0].messageLength 100B
config *.iotDevice[0].app[0].sendInterval 2s
config *.iotDevice[1].numApps 1
config *.iotDevice[1].app[0].typename UdpBasicApp
config *.iotDevice[1].app[0].destAddresses "\"baseStation\""
config *.iotDevice[1].app[0].destPort 12346
config *.iotDevice[1].app[0].startTime "uniform(0s, 1s)"
config *.iotDevice[1].app[0].stopTime 20s
config *.iotDevice[1].app[0].messageLength 200B
config *.iotDevice[1].app[0].sendInterval 3s
config *.configurator.autoassignAddresses true
config **.recordScalar false
config **.recordVector false
config *.iotDevice[*].app[*].packetSent true
config *.iotDevice[*].app[*].packetReceived true
config *.iotDevice[*].app[*].packetLoss true
config *.iotDevice[*].app[*].throughput true
config *.iotDevice[*].app[*].endToEndDelay:vector true
config *.iotDevice[*].app[*].throughput:vector true
config *.satellite.ethg[*].queueingTime true
config *.baseStation.ethg[*].queueingTime true
config **.app[*].recordScalar true
config **.app[*].recordVector true

vector 0 IoTCommunication.satellite.ethernet encapPk:vector(packetBytes) ETV
attr interpolationmode none
attr recordingmode vector(packetBytes)
attr source encapPk
attr title "packets encapsulated, packetBytes"
vector 1 IoTCommunication.satellite.ethernet decapPk:vector(packetBytes) ETV
attr interpolationmode none
attr recordingmode vector(packetBytes)
attr source decapPk
attr title "packets decapsulated, packetBytes"
vector 2 IoTCommunication.satellite.ethernet pauseSent:vector ETV
attr recordingmode vector
attr title "pause sent"
vector 3 IoTCommunication.satellite.lo[0].lo rcvdPkFromHl:vector(packetBytes) ETV
attr interpolationmode none
attr recordingmode vector(packetBytes)
attr source packetReceivedFromUpper
attr title "packets received from higher layer, packetBytes"
vector 4 IoTCommunication.satellite.lo[0].lo passedUpPk:vector(packetBytes) ETV
attr interpolationmode none
attr recordingmode vector(packetBytes)
attr source packetSentToUpper
attr title "packets passed to higher layer, packetBytes"
vector 5 IoTCommunication.satellite.lo[0] packetDropInterfaceDown:vector(packetBytes) ETV
attr interpolationmode none
attr recordingmode vector(packetBytes)
attr source packetDropReasonIsInterfaceDown(packetDropped)
attr title "packet drops: interface down, packetBytes"
vector 6 IoTCommunication.satellite.lo[0] packetDropNoCarrier:vector(packetBytes) ETV
attr interpolationmode none
attr recordingmode vector(packetBytes)
attr source packetDropReasonIsNoCarrier(packetDropped)
attr title "packet drops: no carrier, packetBytes"
vector 7 IoTCommunication.satellite.eth[0].queue queueLength:vector ETV
attr autoWarmupFilter false
attr interpolationmode sample-hold
attr recordingmode vector
attr source "warmup(atomic(constant0(packetPushEnded) + count(packetPushStarted) - count(packetPulled) - count(packetRemoved) - count(packetDropped)))"
attr title "queue length"
attr unit pk
vector 8 IoTCommunication.satellite.eth[0].queue queueBitLength:vector ETV
attr autoWarmupFilter false
attr interpolationmode sample-hold
attr recordingmode vector
attr source "warmup(atomic(constant0(packetPushEnded) + sum(packetLength(packetPushStarted)) - sum(packetLength(packetPulled)) - sum(packetLength(packetRemoved)) - sum(packetLength(packetDropped))))"
attr title "queue bit length"
attr unit b
vector 9 IoTCommunication.satellite.eth[0].queue queueingTime:vector ETV
attr interpolationmode none
attr recordingmode vector
attr source queueingTime(packetPulled)
attr title "queueing times"
attr unit s
vector 10 IoTCommunication.satellite.eth[0].queue incomingPacketLengths:vector ETV
attr interpolationmode none
attr recordingmode vector
attr source packetLength(packetPushStarted)
attr title "incoming packet lengths"
attr unit b
vector 11 IoTCommunication.satellite.eth[0].queue incomingDataRate:vector ETV
attr interpolationmode linear
attr recordingmode vector
attr source throughput(packetPushStarted)
attr title "incoming datarate"
attr unit bps
vector 12 IoTCommunication.satellite.eth[0].queue outgoingPacketLengths:vector ETV
attr interpolationmode none
attr recordingmode vector
attr source packetLength(packetPulled)
attr title "outgoing packet lengths"
attr unit b
vector 13 IoTCommunication.satellite.eth[0].queue outgoingDataRate:vector ETV
attr interpolationmode linear
attr recordingmode vector
attr source throughput(packetPulled)
attr title "outgoing datarate"
attr unit bps
vector 14 IoTCommunication.satellite.eth[0].queue droppedPacketLengthsQueueOverflow:vector ETV
attr interpolationmode none
attr recordingmode vector
attr source packetLength(packetDropReasonIsQueueOverflow(packetDropped))
attr title "dropped packet lengths: queue overflow"
attr unit b
vector 15 IoTCommunication.satellite.eth[0].queue flowQueueingTime:vector ETV
attr interpolationmode none
attr recordingmode vector
attr source queueingTime(demuxFlow(packetPulled))
attr title "flow queueing times"
attr unit s
vector 16 IoTCommunication.satellite.eth[0].queue flowIncomingDataRate:vector ETV
attr interpolationmode linear
attr recordingmode vector
attr source throughput(flowPacketLength(demuxFlow(packetPushStarted)))
attr title "flow specific incoming data rate"
attr unit bps
vector 17 IoTCommunication.satellite.eth[0].queue flowOutgoingDataRate:vector ETV
attr interpolationmode linear
attr recordingmode vector
attr source throughput(flowPacketLength(demuxFlow(packetPulled)))
attr title "flow specific outgoing data rate"
attr unit bps
vector 18 IoTCommunication.satellite.eth[0].mac txPk:vector(packetBytes) ETV
attr interpolationmode none
attr recordingmode vector(packetBytes)
attr source packetSentToLower
attr title "packets transmitted, packetBytes"
vector 19 IoTCommunication.satellite.eth[0].mac rxPkOk:vector(packetBytes) ETV
attr interpolationmode none
attr recordingmode vector(packetBytes)
attr source rxPkOk
attr title "packets received OK, packetBytes"
vector 20 IoTCommunication.satellite.eth[0].mac passedUpPk:vector(packetBytes) ETV
attr interpolationmode none
attr recordingmode vector(packetBytes)
attr source packetSentToUpper
attr title "packets passed to higher layer, packetBytes"
vector 21 IoTCommunication.satellite.eth[0].mac txPausePkUnits:vector ETV
attr interpolationmode none
attr recordingmode vector
attr title "pause units sent"
vector 22 IoTCommunication.satellite.eth[0].mac rxPausePkUnits:vector ETV
attr interpolationmode none
attr recordingmode vector
attr title "pause units received"
vector 23 IoTCommunication.satellite.eth[0].mac packetReceivedFromUpper:vector(packetBytes) ETV
attr interpolationmode none
attr recordingmode vector(packetBytes)
attr source packetReceivedFromUpper
attr title "packet bytes from higher layer, packetBytes"
vector 24 IoTCommunication.satellite.eth[0].mac packetDropIncorrectlyReceived:vector(packetBytes) ETV
attr interpolationmode none
attr recordingmode vector(packetBytes)
attr source packetDropReasonIsIncorrectlyReceived(packetDropped)
attr title "packet drop: incorrectly received, packetBytes"
vector 25 IoTCommunication.satellite.eth[0].mac packetDropInterfaceDown:vector(packetBytes) ETV
attr interpolationmode none
attr recordingmode vector(packetBytes)
attr source packetDropReasonIsInterfaceDown(packetDropped)
attr title "packet drop: interface down, packetBytes"
vector 26 IoTCommunication.satellite.eth[0].mac packetDropNotAddressedToUs:vector(packetBytes) ETV
attr interpolationmode none
attr recordingmode vector(packetBytes)
attr source packetDropReasonIsNotAddressedToUs(packetDropped)
attr title "packet drop: not addressed to us, packetBytes"
vector 27 IoTCommunication.satellite.eth[0] packetDropInterfaceDown:vector(packetBytes) ETV
attr interpolationmode none
attr recordingmode vector(packetBytes)
attr source packetDropReasonIsInterfaceDown(packetDropped)
attr title "packet drops: interface down, packetBytes"
vector 28 IoTCommunication.satellite.eth[0] packetDropNoCarrier:vector(packetBytes) ETV
attr interpolationmode none
attr recordingmode vector(packetBytes)
attr source packetDropReasonIsNoCarrier(packetDropped)
attr title "packet drops: no carrier, packetBytes"
vector 29 IoTCommunication.satellite.ipv4.ip packetDropAddressResolutionFailed:vector(packetBytes) ETV
attr interpolationmode none
attr recordingmode vector(packetBytes)
attr source packetDropReasonIsAddressResolutionFailed(packetDropped)
attr title "packet drop: address resolution failed, packetBytes"
vector 30 IoTCommunication.satellite.ipv4.ip packetDropHopLimitReached:vector(packetBytes) ETV
attr interpolationmode none
attr recordingmode vector(packetBytes)
attr source packetDropReasonIsHopLimitReached(packetDropped)
attr title "packet drop: hop limit reached, packetBytes"
vector 31 IoTCommunication.satellite.ipv4.ip packetDropForwardingDisabled:vector(packetBytes) ETV
attr interpolationmode none
attr recordingmode vector(packetBytes)
attr source packetDropReasonIsForwardingDisabled(packetDropped)
attr title "packet drop: forwarding disabled, packetBytes"
vector 32 IoTCommunication.satellite.ipv4.ip packetDropNoInterfaceFound:vector(packetBytes) ETV
attr interpolationmode none
attr recordingmode vector(packetBytes)
attr source packetDropReasonIsNoInterfaceFound(packetDropped)
attr title "packet drop: no interface found, packetBytes"
vector 33 IoTCommunication.satellite.ipv4.ip packetDropNoRouteFound:vector(packetBytes) ETV
attr interpolationmode none
attr recordingmode vector(packetBytes)
attr source packetDropReasonIsNoRouteFound(packetDropped)
attr title "packet drop: no route found, packetBytes"
vector 34 IoTCommunication.satellite.ipv4.ip packetDropUndefined:vector(packetBytes) ETV
attr interpolationmode none
attr recordingmode vector(packetBytes)
attr source packetDropReasonIsUndefined(packetDropped)
attr title "packet drop: undefined, packetBytes"
vector 35 IoTCommunication.satellite.ipv4.arp arpRequestSent:vector(packetBytes) ETV
attr recordingmode vector(packetBytes)
attr source arpRequestSent
attr title "ARP request sent, packetBytes"
vector 36 IoTCommunication.satellite.ipv4.arp arpReplySent:vector(packetBytes) ETV
attr recordingmode vector(packetBytes)
attr source arpReplySent
attr title "ARP replies sent, packetBytes"
vector 37 IoTCommunication.baseStation.ethernet encapPk:vector(packetBytes) ETV
attr interpolationmode none
attr recordingmode vector(packetBytes)
attr source encapPk
attr title "packets encapsulated, packetBytes"
vector 38 IoTCommunication.baseStation.ethernet decapPk:vector(packetBytes) ETV
attr interpolationmode none
attr recordingmode vector(packetBytes)
attr source decapPk
attr title "packets decapsulated, packetBytes"
vector 39 IoTCommunication.baseStation.ethernet pauseSent:vector ETV
attr recordingmode vector
attr title "pause sent"
vector 40 IoTCommunication.baseStation.lo[0].lo rcvdPkFromHl:vector(packetBytes) ETV
attr interpolationmode none
attr recordingmode vector(packetBytes)
attr source packetReceivedFromUpper
attr title "packets received from higher layer, packetBytes"
vector 41 IoTCommunication.baseStation.lo[0].lo passedUpPk:vector(packetBytes) ETV
attr interpolationmode none
attr recordingmode vector(packetBytes)
attr source packetSentToUpper
attr title "packets passed to higher layer, packetBytes"
vector 42 IoTCommunication.baseStation.lo[0] packetDropInterfaceDown:vector(packetBytes) ETV
attr interpolationmode none
attr recordingmode vector(packetBytes)
attr source packetDropReasonIsInterfaceDown(packetDropped)
attr title "packet drops: interface down, packetBytes"
vector 43 IoTCommunication.baseStation.lo[0] packetDropNoCarrier:vector(packetBytes) ETV
attr interpolationmode none
attr recordingmode vector(packetBytes)
attr source packetDropReasonIsNoCarrier(packetDropped)
attr title "packet drops: no carrier, packetBytes"
vector 44 IoTCommunication.baseStation.eth[0].queue queueLength:vector ETV
attr autoWarmupFilter false
attr interpolationmode sample-hold
attr recordingmode vector
attr source "warmup(atomic(constant0(packetPushEnded) + count(packetPushStarted) - count(packetPulled) - count(packetRemoved) - count(packetDropped)))"
attr title "queue length"
attr unit pk
vector 45 IoTCommunication.baseStation.eth[0].queue queueBitLength:vector ETV
attr autoWarmupFilter false
attr interpolationmode sample-hold
attr recordingmode vector
attr source "warmup(atomic(constant0(packetPushEnded) + sum(packetLength(packetPushStarted)) - sum(packetLength(packetPulled)) - sum(packetLength(packetRemoved)) - sum(packetLength(packetDropped))))"
attr title "queue bit length"
attr unit b
vector 46 IoTCommunication.baseStation.eth[0].queue queueingTime:vector ETV
attr interpolationmode none
attr recordingmode vector
attr source queueingTime(packetPulled)
attr title "queueing times"
attr unit s
vector 47 IoTCommunication.baseStation.eth[0].queue incomingPacketLengths:vector ETV
attr interpolationmode none
attr recordingmode vector
attr source packetLength(packetPushStarted)
attr title "incoming packet lengths"
attr unit b
vector 48 IoTCommunication.baseStation.eth[0].queue incomingDataRate:vector ETV
attr interpolationmode linear
attr recordingmode vector
attr source throughput(packetPushStarted)
attr title "incoming datarate"
attr unit bps
vector 49 IoTCommunication.baseStation.eth[0].queue outgoingPacketLengths:vector ETV
attr interpolationmode none
attr recordingmode vector
attr source packetLength(packetPulled)
attr title "outgoing packet lengths"
attr unit b
vector 50 IoTCommunication.baseStation.eth[0].queue outgoingDataRate:vector ETV
attr interpolationmode linear
attr recordingmode vector
attr source throughput(packetPulled)
attr title "outgoing datarate"
attr unit bps
vector 51 IoTCommunication.baseStation.eth[0].queue droppedPacketLengthsQueueOverflow:vector ETV
attr interpolationmode none
attr recordingmode vector
attr source packetLength(packetDropReasonIsQueueOverflow(packetDropped))
attr title "dropped packet lengths: queue overflow"
attr unit b
vector 52 IoTCommunication.baseStation.eth[0].queue flowQueueingTime:vector ETV
attr interpolationmode none
attr recordingmode vector
attr source queueingTime(demuxFlow(packetPulled))
attr title "flow queueing times"
attr unit s
vector 53 IoTCommunication.baseStation.eth[0].queue flowIncomingDataRate:vector ETV
attr interpolationmode linear
attr recordingmode vector
attr source throughput(flowPacketLength(demuxFlow(packetPushStarted)))
attr title "flow specific incoming data rate"
attr unit bps
vector 54 IoTCommunication.baseStation.eth[0].queue flowOutgoingDataRate:vector ETV
attr interpolationmode linear
attr recordingmode vector
attr source throughput(flowPacketLength(demuxFlow(packetPulled)))
attr title "flow specific outgoing data rate"
attr unit bps
vector 55 IoTCommunication.baseStation.eth[0].mac txPk:vector(packetBytes) ETV
attr interpolationmode none
attr recordingmode vector(packetBytes)
attr source packetSentToLower
attr title "packets transmitted, packetBytes"
vector 56 IoTCommunication.baseStation.eth[0].mac rxPkOk:vector(packetBytes) ETV
attr interpolationmode none
attr recordingmode vector(packetBytes)
attr source rxPkOk
attr title "packets received OK, packetBytes"
vector 57 IoTCommunication.baseStation.eth[0].mac passedUpPk:vector(packetBytes) ETV
attr interpolationmode none
attr recordingmode vector(packetBytes)
attr source packetSentToUpper
attr title "packets passed to higher layer, packetBytes"
vector 58 IoTCommunication.baseStation.eth[0].mac txPausePkUnits:vector ETV
attr interpolationmode none
attr recordingmode vector
attr title "pause units sent"
vector 59 IoTCommunication.baseStation.eth[0].mac rxPausePkUnits:vector ETV
attr interpolationmode none
attr recordingmode vector
attr title "pause units received"
vector 60 IoTCommunication.baseStation.eth[0].mac packetReceivedFromUpper:vector(packetBytes) ETV
attr interpolationmode none
attr recordingmode vector(packetBytes)
attr source packetReceivedFromUpper
attr title "packet bytes from higher layer, packetBytes"
vector 61 IoTCommunication.baseStation.eth[0].mac packetDropIncorrectlyReceived:vector(packetBytes) ETV
attr interpolationmode none
attr recordingmode vector(packetBytes)
attr source packetDropReasonIsIncorrectlyReceived(packetDropped)
attr title "packet drop: incorrectly received, packetBytes"
vector 62 IoTCommunication.baseStation.eth[0].mac packetDropInterfaceDown:vector(packetBytes) ETV
attr interpolationmode none
attr recordingmode vector(packetBytes)
attr source packetDropReasonIsInterfaceDown(packetDropped)
attr title "packet drop: interface down, packetBytes"
vector 63 IoTCommunication.baseStation.eth[0].mac packetDropNotAddressedToUs:vector(packetBytes) ETV
attr interpolationmode none
attr recordingmode vector(packetBytes)
attr source packetDropReasonIsNotAddressedToUs(packetDropped)
attr title "packet drop: not addressed to us, packetBytes"
vector 64 IoTCommunication.baseStation.eth[0] packetDropInterfaceDown:vector(packetBytes) ETV
attr interpolationmode none
attr recordingmode vector(packetBytes)
attr source packetDropReasonIsInterfaceDown(packetDropped)
attr title "packet drops: interface down, packetBytes"
vector 65 IoTCommunication.baseStation.eth[0] packetDropNoCarrier:vector(packetBytes) ETV
attr interpolationmode none
attr recordingmode vector(packetBytes)
attr source packetDropReasonIsNoCarrier(packetDropped)
attr title "packet drops: no carrier, packetBytes"
vector 66 IoTCommunication.baseStation.eth[1].queue queueLength:vector ETV
attr autoWarmupFilter false
attr interpolationmode sample-hold
attr recordingmode vector
attr source "warmup(atomic(constant0(packetPushEnded) + count(packetPushStarted) - count(packetPulled) - count(packetRemoved) - count(packetDropped)))"
attr title "queue length"
attr unit pk
vector 67 IoTCommunication.baseStation.eth[1].queue queueBitLength:vector ETV
attr autoWarmupFilter false
attr interpolationmode sample-hold
attr recordingmode vector
attr source "warmup(atomic(constant0(packetPushEnded) + sum(packetLength(packetPushStarted)) - sum(packetLength(packetPulled)) - sum(packetLength(packetRemoved)) - sum(packetLength(packetDropped))))"
attr title "queue bit length"
attr unit b
vector 68 IoTCommunication.baseStation.eth[1].queue queueingTime:vector ETV
attr interpolationmode none
attr recordingmode vector
attr source queueingTime(packetPulled)
attr title "queueing times"
attr unit s
vector 69 IoTCommunication.baseStation.eth[1].queue incomingPacketLengths:vector ETV
attr interpolationmode none
attr recordingmode vector
attr source packetLength(packetPushStarted)
attr title "incoming packet lengths"
attr unit b
vector 70 IoTCommunication.baseStation.eth[1].queue incomingDataRate:vector ETV
attr interpolationmode linear
attr recordingmode vector
attr source throughput(packetPushStarted)
attr title "incoming datarate"
attr unit bps
vector 71 IoTCommunication.baseStation.eth[1].queue outgoingPacketLengths:vector ETV
attr interpolationmode none
attr recordingmode vector
attr source packetLength(packetPulled)
attr title "outgoing packet lengths"
attr unit b
vector 72 IoTCommunication.baseStation.eth[1].queue outgoingDataRate:vector ETV
attr interpolationmode linear
attr recordingmode vector
attr source throughput(packetPulled)
attr title "outgoing datarate"
attr unit bps
vector 73 IoTCommunication.baseStation.eth[1].queue droppedPacketLengthsQueueOverflow:vector ETV
attr interpolationmode none
attr recordingmode vector
attr source packetLength(packetDropReasonIsQueueOverflow(packetDropped))
attr title "dropped packet lengths: queue overflow"
attr unit b
vector 74 IoTCommunication.baseStation.eth[1].queue flowQueueingTime:vector ETV
attr interpolationmode none
attr recordingmode vector
attr source queueingTime(demuxFlow(packetPulled))
attr title "flow queueing times"
attr unit s
vector 75 IoTCommunication.baseStation.eth[1].queue flowIncomingDataRate:vector ETV
attr interpolationmode linear
attr recordingmode vector
attr source throughput(flowPacketLength(demuxFlow(packetPushStarted)))
attr title "flow specific incoming data rate"
attr unit bps
vector 76 IoTCommunication.baseStation.eth[1].queue flowOutgoingDataRate:vector ETV
attr interpolationmode linear
attr recordingmode vector
attr source throughput(flowPacketLength(demuxFlow(packetPulled)))
attr title "flow specific outgoing data rate"
attr unit bps
vector 77 IoTCommunication.baseStation.eth[1].mac txPk:vector(packetBytes) ETV
attr interpolationmode none
attr recordingmode vector(packetBytes)
attr source packetSentToLower
attr title "packets transmitted, packetBytes"
vector 78 IoTCommunication.baseStation.eth[1].mac rxPkOk:vector(packetBytes) ETV
attr interpolationmode none
attr recordingmode vector(packetBytes)
attr source rxPkOk
attr title "packets received OK, packetBytes"
vector 79 IoTCommunication.baseStation.eth[1].mac passedUpPk:vector(packetBytes) ETV
attr interpolationmode none
attr recordingmode vector(packetBytes)
attr source packetSentToUpper
attr title "packets passed to higher layer, packetBytes"
vector 80 IoTCommunication.baseStation.eth[1].mac txPausePkUnits:vector ETV
attr interpolationmode none
attr recordingmode vector
attr title "pause units sent"
vector 81 IoTCommunication.baseStation.eth[1].mac rxPausePkUnits:vector ETV
attr interpolationmode none
attr recordingmode vector
attr title "pause units received"
vector 82 IoTCommunication.baseStation.eth[1].mac packetReceivedFromUpper:vector(packetBytes) ETV
attr interpolationmode none
attr recordingmode vector(packetBytes)
attr source packetReceivedFromUpper
attr title "packet bytes from higher layer, packetBytes"
vector 83 IoTCommunication.baseStation.eth[1].mac packetDropIncorrectlyReceived:vector(packetBytes) ETV
attr interpolationmode none
attr recordingmode vector(packetBytes)
attr source packetDropReasonIsIncorrectlyReceived(packetDropped)
attr title "packet drop: incorrectly received, packetBytes"
vector 84 IoTCommunication.baseStation.eth[1].mac packetDropInterfaceDown:vector(packetBytes) ETV
attr interpolationmode none
attr recordingmode vector(packetBytes)
attr source packetDropReasonIsInterfaceDown(packetDropped)
attr title "packet drop: interface down, packetBytes"
vector 85 IoTCommunication.baseStation.eth[1].mac packetDropNotAddressedToUs:vector(packetBytes) ETV
attr interpolationmode none
attr recordingmode vector(packetBytes)
attr source packetDropReasonIsNotAddressedToUs(packetDropped)
attr title "packet drop: not addressed to us, packetBytes"
vector 86 IoTCommunication.baseStation.eth[1] packetDropInterfaceDown:vector(packetBytes) ETV
attr interpolationmode none
attr recordingmode vector(packetBytes)
attr source packetDropReasonIsInterfaceDown(packetDropped)
attr title "packet drops: interface down, packetBytes"
vector 87 IoTCommunication.baseStation.eth[1] packetDropNoCarrier:vector(packetBytes) ETV
attr interpolationmode none
attr recordingmode vector(packetBytes)
attr source packetDropReasonIsNoCarrier(packetDropped)
attr title "packet drops: no carrier, packetBytes"
vector 88 IoTCommunication.baseStation.eth[2].queue queueLength:vector ETV
attr autoWarmupFilter false
attr interpolationmode sample-hold
attr recordingmode vector
attr source "warmup(atomic(constant0(packetPushEnded) + count(packetPushStarted) - count(packetPulled) - count(packetRemoved) - count(packetDropped)))"
attr title "queue length"
attr unit pk
vector 89 IoTCommunication.baseStation.eth[2].queue queueBitLength:vector ETV
attr autoWarmupFilter false
attr interpolationmode sample-hold
attr recordingmode vector
attr source "warmup(atomic(constant0(packetPushEnded) + sum(packetLength(packetPushStarted)) - sum(packetLength(packetPulled)) - sum(packetLength(packetRemoved)) - sum(packetLength(packetDropped))))"
attr title "queue bit length"
attr unit b
vector 90 IoTCommunication.baseStation.eth[2].queue queueingTime:vector ETV
attr interpolationmode none
attr recordingmode vector
attr source queueingTime(packetPulled)
attr title "queueing times"
attr unit s
vector 91 IoTCommunication.baseStation.eth[2].queue incomingPacketLengths:vector ETV
attr interpolationmode none
attr recordingmode vector
attr source packetLength(packetPushStarted)
attr title "incoming packet lengths"
attr unit b
vector 92 IoTCommunication.baseStation.eth[2].queue incomingDataRate:vector ETV
attr interpolationmode linear
attr recordingmode vector
attr source throughput(packetPushStarted)
attr title "incoming datarate"
attr unit bps
vector 93 IoTCommunication.baseStation.eth[2].queue outgoingPacketLengths:vector ETV
attr interpolationmode none
attr recordingmode vector
attr source packetLength(packetPulled)
attr title "outgoing packet lengths"
attr unit b
vector 94 IoTCommunication.baseStation.eth[2].queue outgoingDataRate:vector ETV
attr interpolationmode linear
attr recordingmode vector
attr source throughput(packetPulled)
attr title "outgoing datarate"
attr unit bps
vector 95 IoTCommunication.baseStation.eth[2].queue droppedPacketLengthsQueueOverflow:vector ETV
attr interpolationmode none
attr recordingmode vector
attr source packetLength(packetDropReasonIsQueueOverflow(packetDropped))
attr title "dropped packet lengths: queue overflow"
attr unit b
vector 96 IoTCommunication.baseStation.eth[2].queue flowQueueingTime:vector ETV
attr interpolationmode none
attr recordingmode vector
attr source queueingTime(demuxFlow(packetPulled))
attr title "flow queueing times"
attr unit s
vector 97 IoTCommunication.baseStation.eth[2].queue flowIncomingDataRate:vector ETV
attr interpolationmode linear
attr recordingmode vector
attr source throughput(flowPacketLength(demuxFlow(packetPushStarted)))
attr title "flow specific incoming data rate"
attr unit bps
vector 98 IoTCommunication.baseStation.eth[2].queue flowOutgoingDataRate:vector ETV
attr interpolationmode linear
attr recordingmode vector
attr source throughput(flowPacketLength(demuxFlow(packetPulled)))
attr title "flow specific outgoing data rate"
attr unit bps
vector 99 IoTCommunication.baseStation.eth[2].mac txPk:vector(packetBytes) ETV
attr interpolationmode none
attr recordingmode vector(packetBytes)
attr source packetSentToLower
attr title "packets transmitted, packetBytes"
vector 100 IoTCommunication.baseStation.eth[2].mac rxPkOk:vector(packetBytes) ETV
attr interpolationmode none
attr recordingmode vector(packetBytes)
attr source rxPkOk
attr title "packets received OK, packetBytes"
vector 101 IoTCommunication.baseStation.eth[2].mac passedUpPk:vector(packetBytes) ETV
attr interpolationmode none
attr recordingmode vector(packetBytes)
attr source packetSentToUpper
attr title "packets passed to higher layer, packetBytes"
vector 102 IoTCommunication.baseStation.eth[2].mac txPausePkUnits:vector ETV
attr interpolationmode none
attr recordingmode vector
attr title "pause units sent"
vector 103 IoTCommunication.baseStation.eth[2].mac rxPausePkUnits:vector ETV
attr interpolationmode none
attr recordingmode vector
attr title "pause units received"
vector 104 IoTCommunication.baseStation.eth[2].mac packetReceivedFromUpper:vector(packetBytes) ETV
attr interpolationmode none
attr recordingmode vector(packetBytes)
attr source packetReceivedFromUpper
attr title "packet bytes from higher layer, packetBytes"
vector 105 IoTCommunication.baseStation.eth[2].mac packetDropIncorrectlyReceived:vector(packetBytes) ETV
attr interpolationmode none
attr recordingmode vector(packetBytes)
attr source packetDropReasonIsIncorrectlyReceived(packetDropped)
attr title "packet drop: incorrectly received, packetBytes"
vector 106 IoTCommunication.baseStation.eth[2].mac packetDropInterfaceDown:vector(packetBytes) ETV
attr interpolationmode none
attr recordingmode vector(packetBytes)
attr source packetDropReasonIsInterfaceDown(packetDropped)
attr title "packet drop: interface down, packetBytes"
vector 107 IoTCommunication.baseStation.eth[2].mac packetDropNotAddressedToUs:vector(packetBytes) ETV
attr interpolationmode none
attr recordingmode vector(packetBytes)
attr source packetDropReasonIsNotAddressedToUs(packetDropped)
attr title "packet drop: not addressed to us, packetBytes"
vector 108 IoTCommunication.baseStation.eth[2] packetDropInterfaceDown:vector(packetBytes) ETV
attr interpolationmode none
attr recordingmode vector(packetBytes)
attr source packetDropReasonIsInterfaceDown(packetDropped)
attr title "packet drops: interface down, packetBytes"
vector 109 IoTCommunication.baseStation.eth[2] packetDropNoCarrier:vector(packetBytes) ETV
attr interpolationmode none
attr recordingmode vector(packetBytes)
attr source packetDropReasonIsNoCarrier(packetDropped)
attr title "packet drops: no carrier, packetBytes"
vector 110 IoTCommunication.baseStation.ipv4.ip packetDropAddressResolutionFailed:vector(packetBytes) ETV
attr interpolationmode none
attr recordingmode vector(packetBytes)
attr source packetDropReasonIsAddressResolutionFailed(packetDropped)
attr title "packet drop: address resolution failed, packetBytes"
vector 111 IoTCommunication.baseStation.ipv4.ip packetDropHopLimitReached:vector(packetBytes) ETV
attr interpolationmode none
attr recordingmode vector(packetBytes)
attr source packetDropReasonIsHopLimitReached(packetDropped)
attr title "packet drop: hop limit reached, packetBytes"
vector 112 IoTCommunication.baseStation.ipv4.ip packetDropForwardingDisabled:vector(packetBytes) ETV
attr interpolationmode none
attr recordingmode vector(packetBytes)
attr source packetDropReasonIsForwardingDisabled(packetDropped)
attr title "packet drop: forwarding disabled, packetBytes"
vector 113 IoTCommunication.baseStation.ipv4.ip packetDropNoInterfaceFound:vector(packetBytes) ETV
attr interpolationmode none
attr recordingmode vector(packetBytes)
attr source packetDropReasonIsNoInterfaceFound(packetDropped)
attr title "packet drop: no interface found, packetBytes"
vector 114 IoTCommunication.baseStation.ipv4.ip packetDropNoRouteFound:vector(packetBytes) ETV
attr interpolationmode none
attr recordingmode vector(packetBytes)
attr source packetDropReasonIsNoRouteFound(packetDropped)
attr title "packet drop: no route found, packetBytes"
vector 115 IoTCommunication.baseStation.ipv4.ip packetDropUndefined:vector(packetBytes) ETV
attr interpolationmode none
attr recordingmode vector(packetBytes)
attr source packetDropReasonIsUndefined(packetDropped)
attr title "packet drop: undefined, packetBytes"
vector 116 IoTCommunication.baseStation.ipv4.arp arpRequestSent:vector(packetBytes) ETV
attr recordingmode vector(packetBytes)
attr source arpRequestSent
attr title "ARP request sent, packetBytes"
vector 117 IoTCommunication.baseStation.ipv4.arp arpReplySent:vector(packetBytes) ETV
attr recordingmode vector(packetBytes)
attr source arpReplySent
attr title "ARP replies sent, packetBytes"
vector 118 IoTCommunication.iotDevice[0].ethernet encapPk:vector(packetBytes) ETV
attr interpolationmode none
attr recordingmode vector(packetBytes)
attr source encapPk
attr title "packets encapsulated, packetBytes"
vector 119 IoTCommunication.iotDevice[0].ethernet decapPk:vector(packetBytes) ETV
attr interpolationmode none
attr recordingmode vector(packetBytes)
attr source decapPk
attr title "packets decapsulated, packetBytes"
vector 120 IoTCommunication.iotDevice[0].ethernet pauseSent:vector ETV
attr recordingmode vector
attr title "pause sent"
vector 121 IoTCommunication.iotDevice[0].lo[0].lo rcvdPkFromHl:vector(packetBytes) ETV
attr interpolationmode none
attr recordingmode vector(packetBytes)
attr source packetReceivedFromUpper
attr title "packets received from higher layer, packetBytes"
vector 122 IoTCommunication.iotDevice[0].lo[0].lo passedUpPk:vector(packetBytes) ETV
attr interpolationmode none
attr recordingmode vector(packetBytes)
attr source packetSentToUpper
attr title "packets passed to higher layer, packetBytes"
vector 123 IoTCommunication.iotDevice[0].lo[0] packetDropInterfaceDown:vector(packetBytes) ETV
attr interpolationmode none
attr recordingmode vector(packetBytes)
attr source packetDropReasonIsInterfaceDown(packetDropped)
attr title "packet drops: interface down, packetBytes"
vector 124 IoTCommunication.iotDevice[0].lo[0] packetDropNoCarrier:vector(packetBytes) ETV
attr interpolationmode none
attr recordingmode vector(packetBytes)
attr source packetDropReasonIsNoCarrier(packetDropped)
attr title "packet drops: no carrier, packetBytes"
vector 125 IoTCommunication.iotDevice[0].eth[0].queue queueLength:vector ETV
attr autoWarmupFilter false
attr interpolationmode sample-hold
attr recordingmode vector
attr source "warmup(atomic(constant0(packetPushEnded) + count(packetPushStarted) - count(packetPulled) - count(packetRemoved) - count(packetDropped)))"
attr title "queue length"
attr unit pk
vector 126 IoTCommunication.iotDevice[0].eth[0].queue queueBitLength:vector ETV
attr autoWarmupFilter false
attr interpolationmode sample-hold
attr recordingmode vector
attr source "warmup(atomic(constant0(packetPushEnded) + sum(packetLength(packetPushStarted)) - sum(packetLength(packetPulled)) - sum(packetLength(packetRemoved)) - sum(packetLength(packetDropped))))"
attr title "queue bit length"
attr unit b
vector 127 IoTCommunication.iotDevice[0].eth[0].queue queueingTime:vector ETV
attr interpolationmode none
attr recordingmode vector
attr source queueingTime(packetPulled)
attr title "queueing times"
attr unit s
vector 128 IoTCommunication.iotDevice[0].eth[0].queue incomingPacketLengths:vector ETV
attr interpolationmode none
attr recordingmode vector
attr source packetLength(packetPushStarted)
attr title "incoming packet lengths"
attr unit b
vector 129 IoTCommunication.iotDevice[0].eth[0].queue incomingDataRate:vector ETV
attr interpolationmode linear
attr recordingmode vector
attr source throughput(packetPushStarted)
attr title "incoming datarate"
attr unit bps
vector 130 IoTCommunication.iotDevice[0].eth[0].queue outgoingPacketLengths:vector ETV
attr interpolationmode none
attr recordingmode vector
attr source packetLength(packetPulled)
attr title "outgoing packet lengths"
attr unit b
vector 131 IoTCommunication.iotDevice[0].eth[0].queue outgoingDataRate:vector ETV
attr interpolationmode linear
attr recordingmode vector
attr source throughput(packetPulled)
attr title "outgoing datarate"
attr unit bps
vector 132 IoTCommunication.iotDevice[0].eth[0].queue droppedPacketLengthsQueueOverflow:vector ETV
attr interpolationmode none
attr recordingmode vector
attr source packetLength(packetDropReasonIsQueueOverflow(packetDropped))
attr title "dropped packet lengths: queue overflow"
attr unit b
vector 133 IoTCommunication.iotDevice[0].eth[0].queue flowQueueingTime:vector ETV
attr interpolationmode none
attr recordingmode vector
attr source queueingTime(demuxFlow(packetPulled))
attr title "flow queueing times"
attr unit s
vector 134 IoTCommunication.iotDevice[0].eth[0].queue flowIncomingDataRate:vector ETV
attr interpolationmode linear
attr recordingmode vector
attr source throughput(flowPacketLength(demuxFlow(packetPushStarted)))
attr title "flow specific incoming data rate"
attr unit bps
vector 135 IoTCommunication.iotDevice[0].eth[0].queue flowOutgoingDataRate:vector ETV
attr interpolationmode linear
attr recordingmode vector
attr source throughput(flowPacketLength(demuxFlow(packetPulled)))
attr title "flow specific outgoing data rate"
attr unit bps
vector 136 IoTCommunication.iotDevice[0].eth[0].mac txPk:vector(packetBytes) ETV
attr interpolationmode none
attr recordingmode vector(packetBytes)
attr source packetSentToLower
attr title "packets transmitted, packetBytes"
vector 137 IoTCommunication.iotDevice[0].eth[0].mac rxPkOk:vector(packetBytes) ETV
attr interpolationmode none
attr recordingmode vector(packetBytes)
attr source rxPkOk
attr title "packets received OK, packetBytes"
vector 138 IoTCommunication.iotDevice[0].eth[0].mac passedUpPk:vector(packetBytes) ETV
attr interpolationmode none
attr recordingmode vector(packetBytes)
attr source packetSentToUpper
attr title "packets passed to higher layer, packetBytes"
vector 139 IoTCommunication.iotDevice[0].eth[0].mac txPausePkUnits:vector ETV
attr interpolationmode none
attr recordingmode vector
attr title "pause units sent"
vector 140 IoTCommunication.iotDevice[0].eth[0].mac rxPausePkUnits:vector ETV
attr interpolationmode none
attr recordingmode vector
attr title "pause units received"
vector 141 IoTCommunication.iotDevice[0].eth[0].mac packetReceivedFromUpper:vector(packetBytes) ETV
attr interpolationmode none
attr recordingmode vector(packetBytes)
attr source packetReceivedFromUpper
attr title "packet bytes from higher layer, packetBytes"
vector 142 IoTCommunication.iotDevice[0].eth[0].mac packetDropIncorrectlyReceived:vector(packetBytes) ETV
attr interpolationmode none
attr recordingmode vector(packetBytes)
attr source packetDropReasonIsIncorrectlyReceived(packetDropped)
attr title "packet drop: incorrectly received, packetBytes"
vector 143 IoTCommunication.iotDevice[0].eth[0].mac packetDropInterfaceDown:vector(packetBytes) ETV
attr interpolationmode none
attr recordingmode vector(packetBytes)
attr source packetDropReasonIsInterfaceDown(packetDropped)
attr title "packet drop: interface down, packetBytes"
vector 144 IoTCommunication.iotDevice[0].eth[0].mac packetDropNotAddressedToUs:vector(packetBytes) ETV
attr interpolationmode none
attr recordingmode vector(packetBytes)
attr source packetDropReasonIsNotAddressedToUs(packetDropped)
attr title "packet drop: not addressed to us, packetBytes"
vector 145 IoTCommunication.iotDevice[0].eth[0] packetDropInterfaceDown:vector(packetBytes) ETV
attr interpolationmode none
attr recordingmode vector(packetBytes)
attr source packetDropReasonIsInterfaceDown(packetDropped)
attr title "packet drops: interface down, packetBytes"
vector 146 IoTCommunication.iotDevice[0].eth[0] packetDropNoCarrier:vector(packetBytes) ETV
attr interpolationmode none
attr recordingmode vector(packetBytes)
attr source packetDropReasonIsNoCarrier(packetDropped)
attr title "packet drops: no carrier, packetBytes"
vector 147 IoTCommunication.iotDevice[0].ipv4.ip packetDropAddressResolutionFailed:vector(packetBytes) ETV
attr interpolationmode none
attr recordingmode vector(packetBytes)
attr source packetDropReasonIsAddressResolutionFailed(packetDropped)
attr title "packet drop: address resolution failed, packetBytes"
vector 148 IoTCommunication.iotDevice[0].ipv4.ip packetDropHopLimitReached:vector(packetBytes) ETV
attr interpolationmode none
attr recordingmode vector(packetBytes)
attr source packetDropReasonIsHopLimitReached(packetDropped)
attr title "packet drop: hop limit reached, packetBytes"
vector 149 IoTCommunication.iotDevice[0].ipv4.ip packetDropForwardingDisabled:vector(packetBytes) ETV
attr interpolationmode none
attr recordingmode vector(packetBytes)
attr source packetDropReasonIsForwardingDisabled(packetDropped)
attr title "packet drop: forwarding disabled, packetBytes"
vector 150 IoTCommunication.iotDevice[0].ipv4.ip packetDropNoInterfaceFound:vector(packetBytes) ETV
attr interpolationmode none
attr recordingmode vector(packetBytes)
attr source packetDropReasonIsNoInterfaceFound(packetDropped)
attr title "packet drop: no interface found, packetBytes"
vector 151 IoTCommunication.iotDevice[0].ipv4.ip packetDropNoRouteFound:vector(packetBytes) ETV
attr interpolationmode none
attr recordingmode vector(packetBytes)
attr source packetDropReasonIsNoRouteFound(packetDropped)
attr title "packet drop: no route found, packetBytes"
vector 152 IoTCommunication.iotDevice[0].ipv4.ip packetDropUndefined:vector(packetBytes) ETV
attr interpolationmode none
attr recordingmode vector(packetBytes)
attr source packetDropReasonIsUndefined(packetDropped)
attr title "packet drop: undefined, packetBytes"
vector 153 IoTCommunication.iotDevice[0].ipv4.arp arpRequestSent:vector(packetBytes) ETV
attr recordingmode vector(packetBytes)
attr source arpRequestSent
attr title "ARP request sent, packetBytes"
vector 154 IoTCommunication.iotDevice[0].ipv4.arp arpReplySent:vector(packetBytes) ETV
attr recordingmode vector(packetBytes)
attr source arpReplySent
attr title "ARP replies sent, packetBytes"
vector 155 IoTCommunication.iotDevice[0].udp packetSent:vector(packetBytes) ETV
attr interpolationmode none
attr recordingmode vector(packetBytes)
attr source packetSent
attr title "packets sent, packetBytes"
vector 156 IoTCommunication.iotDevice[0].udp packetReceived:vector(packetBytes) ETV
attr interpolationmode none
attr recordingmode vector(packetBytes)
attr source packetReceived
attr title "packets received, packetBytes"
vector 157 IoTCommunication.iotDevice[0].udp passedUpPk:vector(count) ETV
attr interpolationmode none
attr recordingmode vector(count)
attr source packetSentToUpper
attr title "packets passed up, count"
vector 158 IoTCommunication.iotDevice[0].udp droppedPkWrongPort:vector(count) ETV
attr interpolationmode none
attr recordingmode vector(count)
attr source packetDropReasonIsNoPortFound(packetDropped)
attr title "packets dropped (wrong port), count"
vector 159 IoTCommunication.iotDevice[0].udp droppedPkBadChecksum:vector(count) ETV
attr interpolationmode none
attr recordingmode vector(count)
attr source packetDropReasonIsIncorrectlyReceived(packetDropped)
attr title "packets dropped (checksum error), count"
vector 160 IoTCommunication.iotDevice[0].app[0] packetReceived:vector(packetBytes) ETV
attr interpolationmode none
attr recordingmode vector(packetBytes)
attr source packetReceived
attr title "packets received, packetBytes"
vector 161 IoTCommunication.iotDevice[0].app[0] throughput:vector ETV
attr recordingmode vector
attr source throughput(packetReceived)
attr title throughput
attr unit bps
vector 162 IoTCommunication.iotDevice[0].app[0] packetSent:vector(packetBytes) ETV
attr interpolationmode none
attr recordingmode vector(packetBytes)
attr source packetSent
attr title "packets sent, packetBytes"
vector 163 IoTCommunication.iotDevice[0].app[0] rcvdPkLifetime:vector ETV
attr interpolationmode none
attr recordingmode vector
attr source dataAge(packetReceived)
attr title "received packet lifetime"
attr unit s
vector 164 IoTCommunication.iotDevice[0].app[0] rcvdPkSeqNo:vector ETV
attr interpolationmode none
attr recordingmode vector
attr source appPkSeqNo(packetReceived)
attr title "received packet sequence number"
vector 165 IoTCommunication.iotDevice[1].ethernet encapPk:vector(packetBytes) ETV
attr interpolationmode none
attr recordingmode vector(packetBytes)
attr source encapPk
attr title "packets encapsulated, packetBytes"
vector 166 IoTCommunication.iotDevice[1].ethernet decapPk:vector(packetBytes) ETV
attr interpolationmode none
attr recordingmode vector(packetBytes)
attr source decapPk
attr title "packets decapsulated, packetBytes"
vector 167 IoTCommunication.iotDevice[1].ethernet pauseSent:vector ETV
attr recordingmode vector
attr title "pause sent"
vector 168 IoTCommunication.iotDevice[1].lo[0].lo rcvdPkFromHl:vector(packetBytes) ETV
attr interpolationmode none
attr recordingmode vector(packetBytes)
attr source packetReceivedFromUpper
attr title "packets received from higher layer, packetBytes"
vector 169 IoTCommunication.iotDevice[1].lo[0].lo passedUpPk:vector(packetBytes) ETV
attr interpolationmode none
attr recordingmode vector(packetBytes)
attr source packetSentToUpper
attr title "packets passed to higher layer, packetBytes"
vector 170 IoTCommunication.iotDevice[1].lo[0] packetDropInterfaceDown:vector(packetBytes) ETV
attr interpolationmode none
attr recordingmode vector(packetBytes)
attr source packetDropReasonIsInterfaceDown(packetDropped)
attr title "packet drops: interface down, packetBytes"
vector 171 IoTCommunication.iotDevice[1].lo[0] packetDropNoCarrier:vector(packetBytes) ETV
attr interpolationmode none
attr recordingmode vector(packetBytes)
attr source packetDropReasonIsNoCarrier(packetDropped)
attr title "packet drops: no carrier, packetBytes"
vector 172 IoTCommunication.iotDevice[1].eth[0].queue queueLength:vector ETV
attr autoWarmupFilter false
attr interpolationmode sample-hold
attr recordingmode vector
attr source "warmup(atomic(constant0(packetPushEnded) + count(packetPushStarted) - count(packetPulled) - count(packetRemoved) - count(packetDropped)))"
attr title "queue length"
attr unit pk
vector 173 IoTCommunication.iotDevice[1].eth[0].queue queueBitLength:vector ETV
attr autoWarmupFilter false
attr interpolationmode sample-hold
attr recordingmode vector
attr source "warmup(atomic(constant0(packetPushEnded) + sum(packetLength(packetPushStarted)) - sum(packetLength(packetPulled)) - sum(packetLength(packetRemoved)) - sum(packetLength(packetDropped))))"
attr title "queue bit length"
attr unit b
vector 174 IoTCommunication.iotDevice[1].eth[0].queue queueingTime:vector ETV
attr interpolationmode none
attr recordingmode vector
attr source queueingTime(packetPulled)
attr title "queueing times"
attr unit s
vector 175 IoTCommunication.iotDevice[1].eth[0].queue incomingPacketLengths:vector ETV
attr interpolationmode none
attr recordingmode vector
attr source packetLength(packetPushStarted)
attr title "incoming packet lengths"
attr unit b
vector 176 IoTCommunication.iotDevice[1].eth[0].queue incomingDataRate:vector ETV
attr interpolationmode linear
attr recordingmode vector
attr source throughput(packetPushStarted)
attr title "incoming datarate"
attr unit bps
vector 177 IoTCommunication.iotDevice[1].eth[0].queue outgoingPacketLengths:vector ETV
attr interpolationmode none
attr recordingmode vector
attr source packetLength(packetPulled)
attr title "outgoing packet lengths"
attr unit b
vector 178 IoTCommunication.iotDevice[1].eth[0].queue outgoingDataRate:vector ETV
attr interpolationmode linear
attr recordingmode vector
attr source throughput(packetPulled)
attr title "outgoing datarate"
attr unit bps
vector 179 IoTCommunication.iotDevice[1].eth[0].queue droppedPacketLengthsQueueOverflow:vector ETV
attr interpolationmode none
attr recordingmode vector
attr source packetLength(packetDropReasonIsQueueOverflow(packetDropped))
attr title "dropped packet lengths: queue overflow"
attr unit b
vector 180 IoTCommunication.iotDevice[1].eth[0].queue flowQueueingTime:vector ETV
attr interpolationmode none
attr recordingmode vector
attr source queueingTime(demuxFlow(packetPulled))
attr title "flow queueing times"
attr unit s
vector 181 IoTCommunication.iotDevice[1].eth[0].queue flowIncomingDataRate:vector ETV
attr interpolationmode linear
attr recordingmode vector
attr source throughput(flowPacketLength(demuxFlow(packetPushStarted)))
attr title "flow specific incoming data rate"
attr unit bps
vector 182 IoTCommunication.iotDevice[1].eth[0].queue flowOutgoingDataRate:vector ETV
attr interpolationmode linear
attr recordingmode vector
attr source throughput(flowPacketLength(demuxFlow(packetPulled)))
attr title "flow specific outgoing data rate"
attr unit bps
vector 183 IoTCommunication.iotDevice[1].eth[0].mac txPk:vector(packetBytes) ETV
attr interpolationmode none
attr recordingmode vector(packetBytes)
attr source packetSentToLower
attr title "packets transmitted, packetBytes"
vector 184 IoTCommunication.iotDevice[1].eth[0].mac rxPkOk:vector(packetBytes) ETV
attr interpolationmode none
attr recordingmode vector(packetBytes)
attr source rxPkOk
attr title "packets received OK, packetBytes"
vector 185 IoTCommunication.iotDevice[1].eth[0].mac passedUpPk:vector(packetBytes) ETV
attr interpolationmode none
attr recordingmode vector(packetBytes)
attr source packetSentToUpper
attr title "packets passed to higher layer, packetBytes"
vector 186 IoTCommunication.iotDevice[1].eth[0].mac txPausePkUnits:vector ETV
attr interpolationmode none
attr recordingmode vector
attr title "pause units sent"
vector 187 IoTCommunication.iotDevice[1].eth[0].mac rxPausePkUnits:vector ETV
attr interpolationmode none
attr recordingmode vector
attr title "pause units received"
vector 188 IoTCommunication.iotDevice[1].eth[0].mac packetReceivedFromUpper:vector(packetBytes) ETV
attr interpolationmode none
attr recordingmode vector(packetBytes)
attr source packetReceivedFromUpper
attr title "packet bytes from higher layer, packetBytes"
vector 189 IoTCommunication.iotDevice[1].eth[0].mac packetDropIncorrectlyReceived:vector(packetBytes) ETV
attr interpolationmode none
attr recordingmode vector(packetBytes)
attr source packetDropReasonIsIncorrectlyReceived(packetDropped)
attr title "packet drop: incorrectly received, packetBytes"
vector 190 IoTCommunication.iotDevice[1].eth[0].mac packetDropInterfaceDown:vector(packetBytes) ETV
attr interpolationmode none
attr recordingmode vector(packetBytes)
attr source packetDropReasonIsInterfaceDown(packetDropped)
attr title "packet drop: interface down, packetBytes"
vector 191 IoTCommunication.iotDevice[1].eth[0].mac packetDropNotAddressedToUs:vector(packetBytes) ETV
attr interpolationmode none
attr recordingmode vector(packetBytes)
attr source packetDropReasonIsNotAddressedToUs(packetDropped)
attr title "packet drop: not addressed to us, packetBytes"
vector 192 IoTCommunication.iotDevice[1].eth[0] packetDropInterfaceDown:vector(packetBytes) ETV
attr interpolationmode none
attr recordingmode vector(packetBytes)
attr source packetDropReasonIsInterfaceDown(packetDropped)
attr title "packet drops: interface down, packetBytes"
vector 193 IoTCommunication.iotDevice[1].eth[0] packetDropNoCarrier:vector(packetBytes) ETV
attr interpolationmode none
attr recordingmode vector(packetBytes)
attr source packetDropReasonIsNoCarrier(packetDropped)
attr title "packet drops: no carrier, packetBytes"
vector 194 IoTCommunication.iotDevice[1].ipv4.ip packetDropAddressResolutionFailed:vector(packetBytes) ETV
attr interpolationmode none
attr recordingmode vector(packetBytes)
attr source packetDropReasonIsAddressResolutionFailed(packetDropped)
attr title "packet drop: address resolution failed, packetBytes"
vector 195 IoTCommunication.iotDevice[1].ipv4.ip packetDropHopLimitReached:vector(packetBytes) ETV
attr interpolationmode none
attr recordingmode vector(packetBytes)
attr source packetDropReasonIsHopLimitReached(packetDropped)
attr title "packet drop: hop limit reached, packetBytes"
vector 196 IoTCommunication.iotDevice[1].ipv4.ip packetDropForwardingDisabled:vector(packetBytes) ETV
attr interpolationmode none
attr recordingmode vector(packetBytes)
attr source packetDropReasonIsForwardingDisabled(packetDropped)
attr title "packet drop: forwarding disabled, packetBytes"
vector 197 IoTCommunication.iotDevice[1].ipv4.ip packetDropNoInterfaceFound:vector(packetBytes) ETV
attr interpolationmode none
attr recordingmode vector(packetBytes)
attr source packetDropReasonIsNoInterfaceFound(packetDropped)
attr title "packet drop: no interface found, packetBytes"
vector 198 IoTCommunication.iotDevice[1].ipv4.ip packetDropNoRouteFound:vector(packetBytes) ETV
attr interpolationmode none
attr recordingmode vector(packetBytes)
attr source packetDropReasonIsNoRouteFound(packetDropped)
attr title "packet drop: no route found, packetBytes"
vector 199 IoTCommunication.iotDevice[1].ipv4.ip packetDropUndefined:vector(packetBytes) ETV
attr interpolationmode none
attr recordingmode vector(packetBytes)
attr source packetDropReasonIsUndefined(packetDropped)
attr title "packet drop: undefined, packetBytes"
vector 200 IoTCommunication.iotDevice[1].ipv4.arp arpRequestSent:vector(packetBytes) ETV
attr recordingmode vector(packetBytes)
attr source arpRequestSent
attr title "ARP request sent, packetBytes"
vector 201 IoTCommunication.iotDevice[1].ipv4.arp arpReplySent:vector(packetBytes) ETV
attr recordingmode vector(packetBytes)
attr source arpReplySent
attr title "ARP replies sent, packetBytes"
vector 202 IoTCommunication.iotDevice[1].udp packetSent:vector(packetBytes) ETV
attr interpolationmode none
attr recordingmode vector(packetBytes)
attr source packetSent
attr title "packets sent, packetBytes"
vector 203 IoTCommunication.iotDevice[1].udp packetReceived:vector(packetBytes) ETV
attr interpolationmode none
attr recordingmode vector(packetBytes)
attr source packetReceived
attr title "packets received, packetBytes"
vector 204 IoTCommunication.iotDevice[1].udp passedUpPk:vector(count) ETV
attr interpolationmode none
attr recordingmode vector(count)
attr source packetSentToUpper
attr title "packets passed up, count"
vector 205 IoTCommunication.iotDevice[1].udp droppedPkWrongPort:vector(count) ETV
attr interpolationmode none
attr recordingmode vector(count)
attr source packetDropReasonIsNoPortFound(packetDropped)
attr title "packets dropped (wrong port), count"
vector 206 IoTCommunication.iotDevice[1].udp droppedPkBadChecksum:vector(count) ETV
attr interpolationmode none
attr recordingmode vector(count)
attr source packetDropReasonIsIncorrectlyReceived(packetDropped)
attr title "packets dropped (checksum error), count"
vector 207 IoTCommunication.iotDevice[1].app[0] packetReceived:vector(packetBytes) ETV
attr interpolationmode none
attr recordingmode vector(packetBytes)
attr source packetReceived
attr title "packets received, packetBytes"
vector 208 IoTCommunication.iotDevice[1].app[0] throughput:vector ETV
attr recordingmode vector
attr source throughput(packetReceived)
attr title throughput
attr unit bps
vector 209 IoTCommunication.iotDevice[1].app[0] packetSent:vector(packetBytes) ETV
attr interpolationmode none
attr recordingmode vector(packetBytes)
attr source packetSent
attr title "packets sent, packetBytes"
vector 210 IoTCommunication.iotDevice[1].app[0] rcvdPkLifetime:vector ETV
attr interpolationmode none
attr recordingmode vector
attr source dataAge(packetReceived)
attr title "received packet lifetime"
attr unit s
vector 211 IoTCommunication.iotDevice[1].app[0] rcvdPkSeqNo:vector ETV
attr interpolationmode none
attr recordingmode vector
attr source appPkSeqNo(packetReceived)
attr title "received packet sequence number"
0	33	0.549243102304	28
0	48	0.549461182304	56
0	119	2.549038142304	56
0	175	4.549038142304	56
0	210	6.549038142304	56
0	266	8.549038142304	56
0	322	10.549038142304	56
0	357	12.549038142304	56
0	413	14.549038142304	56
0	469	16.549038142304	56
0	504	18.549038142304	56
1	31	0.549243102304	46
1	45	0.549461182304	128
1	116	2.549038142304	128
1	172	4.549038142304	128
1	207	6.549038142304	128
1	263	8.549038142304	128
1	319	10.549038142304	128
1	354	12.549038142304	128
1	410	14.549038142304	128
1	466	16.549038142304	128
1	501	18.549038142304	128
7	0	0	0
7	0	0	0
7	0	0	0
7	0	0	0
7	0	0	0
7	34	0.549243102304	0
7	49	0.549461182304	0
7	120	2.549038142304	0
7	176	4.549038142304	0
7	211	6.549038142304	0
7	267	8.549038142304	0
7	323	10.549038142304	0
7	358	12.549038142304	0
7	414	14.549038142304	0
7	470	16.549038142304	0
7	505	18.549038142304	0
8	0	0	0
8	0	0	0
8	0	0	0
8	0	0	0
8	0	0	0
8	34	0.549243102304	0
8	49	0.549461182304	0
8	120	2.549038142304	0
8	176	4.549038142304	0
8	211	6.549038142304	0
8	267	8.549038142304	0
8	323	10.549038142304	0
8	358	12.549038142304	0
8	414	14.549038142304	0
8	470	16.549038142304	0
8	505	18.549038142304	0
9	34	0.549243102304	0
9	49	0.549461182304	0
9	120	2.549038142304	0
9	176	4.549038142304	0
9	211	6.549038142304	0
9	267	8.549038142304	0
9	323	10.549038142304	0
9	358	12.549038142304	0
9	414	14.549038142304	0
9	470	16.549038142304	0
9	505	18.549038142304	0
10	34	0.549243102304	368
10	49	0.549461182304	592
10	120	2.549038142304	592
10	176	4.549038142304	592
10	211	6.549038142304	592
10	267	8.549038142304	592
10	323	10.549038142304	592
10	358	12.549038142304	592
10	414	14.549038142304	592
10	470	16.549038142304	592
10	505	18.549038142304	592
11	34	0.1	0
11	34	0.2	0
11	34	0.3	0
11	34	0.4	0
11	34	0.5	0
11	120	0.6	9600
11	120	0.7	0
11	120	0.8	0
11	120	0.9	0
11	120	1	0
11	120	1.1	0
11	120	1.2	0
11	120	1.3	0
11	120	1.4	0
11	120	1.5	0
11	120	1.6	0
11	120	1.7	0
11	120	1.8	0
11	120	1.9	0
11	120	2	0
11	120	2.1	0
11	120	2.2	0
11	120	2.3	0
11	120	2.4	0
11	120	2.5	0
11	176	2.6	5920
11	176	2.7	0
11	176	2.8	0
11	176	2.9	0
11	176	3	0
11	176	3.1	0
11	176	3.2	0
11	176	3.3	0
11	176	3.4	0
11	176	3.5	0
11	176	3.6	0
11	176	3.7	0
11	176	3.8	0
11	176	3.9	0
11	176	4	0
11	176	4.1	0
11	176	4.2	0
11	176	4.3	0
11	176	4.4	0
11	176	4.5	0
11	211	4.6	5920
11	211	4.7	0
11	211	4.8	0
11	211	4.9	0
11	211	5	0
11	211	5.1	0
11	211	5.2	0
11	211	5.3	0
11	211	5.4	0
11	211	5.5	0
11	211	5.6	0
11	211	5.7	0
11	211	5.8	0
11	211	5.9	0
11	211	6	0
11	211	6.1	0
11	211	6.2	0
11	211	6.3	0
11	211	6.4	0
11	211	6.5	0
11	267	6.6	5920
11	267	6.7	0
11	267	6.8	0
11	267	6.9	0
11	267	7	0
11	267	7.1	0
11	267	7.2	0
11	267	7.3	0
11	267	7.4	0
11	267	7.5	0
11	267	7.6	0
11	267	7.7	0
11	267	7.8	0
11	267	7.9	0
11	267	8	0
11	267	8.1	0
11	267	8.2	0
11	267	8.3	0
11	267	8.4	0
11	267	8.5	0
11	323	8.6	5920
11	323	8.7	0
11	323	8.8	0
11	323	8.9	0
11	323	9	0
11	323	9.1	0
11	323	9.2	0
11	323	9.3	0
11	323	9.4	0
11	323	9.5	0
11	323	9.6	0
11	323	9.7	0
11	323	9.8	0
11	323	9.9	0
11	323	10	0
11	323	10.1	0
11	323	10.2	0
11	323	10.3	0
11	323	10.4	0
11	323	10.5	0
11	358	10.6	5920
11	358	10.7	0
11	358	10.8	0
11	358	10.9	0
11	358	11	0
11	358	11.1	0
11	358	11.2	0
11	358	11.3	0
11	358	11.4	0
11	358	11.5	0
11	358	11.6	0
11	358	11.7	0
11	358	11.8	0
11	358	11.9	0
11	358	12	0
11	358	12.1	0
11	358	12.2	0
11	358	12.3	0
11	358	12.4	0
11	358	12.5	0
11	414	12.6	5920
11	414	12.7	0
11	414	12.8	0
11	414	12.9	0
11	414	13	0
11	414	13.1	0
11	414	13.2	0
11	414	13.3	0
11	414	13.4	0
11	414	13.5	0
11	414	13.6	0
11	414	13.7	0
11	414	13.8	0
11	414	13.9	0
11	414	14	0
11	414	14.1	0
11	414	14.2	0
11	414	14.3	0
11	414	14.4	0
11	414	14.5	0
11	470	14.6	5920
11	470	14.7	0
11	470	14.8	0
11	470	14.9	0
11	470	15	0
11	470	15.1	0
11	470	15.2	0
11	470	15.3	0
11	470	15.4	0
11	470	15.5	0
11	470	15.6	0
11	470	15.7	0
11	470	15.8	0
11	470	15.9	0
11	470	16	0
11	470	16.1	0
11	470	16.2	0
11	470	16.3	0
11	470	16.4	0
11	470	16.5	0
11	505	16.6	5920
11	505	16.7	0
11	505	16.8	0
11	505	16.9	0
11	505	17	0
11	505	17.1	0
11	505	17.2	0
11	505	17.3	0
11	505	17.4	0
11	505	17.5	0
11	505	17.6	0
11	505	17.7	0
11	505	17.8	0
11	505	17.9	0
11	505	18	0
11	505	18.1	0
11	505	18.2	0
11	505	18.3	0
11	505	18.4	0
11	505	18.5	0
11	548	18.6	5920
11	548	18.7	0
11	548	18.8	0
11	548	18.9	0
11	548	19	0
11	548	19.1	0
11	548	19.2	0
11	548	19.3	0
11	548	19.4	0
11	548	19.5	0
11	548	19.6	0
11	548	19.7	0
11	548	19.8	0
11	548	19.9	0
11	548	20	0
12	34	0.549243102304	368
12	49	0.549461182304	592
12	120	2.549038142304	592
12	176	4.549038142304	592
12	211	6.549038142304	592
12	267	8.549038142304	592
12	323	10.549038142304	592
12	358	12.549038142304	592
12	414	14.549038142304	592
12	470	16.549038142304	592
12	505	18.549038142304	592
13	34	0.1	0
13	34	0.2	0
13	34	0.3	0
13	34	0.4	0
13	34	0.5	0
13	120	0.6	9600
13	120	0.7	0
13	120	0.8	0
13	120	0.9	0
13	120	1	0
13	120	1.1	0
13	120	1.2	0
13	120	1.3	0
13	120	1.4	0
13	120	1.5	0
13	120	1.6	0
13	120	1.7	0
13	120	1.8	0
13	120	1.9	0
13	120	2	0
13	120	2.1	0
13	120	2.2	0
13	120	2.3	0
13	120	2.4	0
13	120	2.5	0
13	176	2.6	5920
13	176	2.7	0
13	176	2.8	0
13	176	2.9	0
13	176	3	0
13	176	3.1	0
13	176	3.2	0
13	176	3.3	0
13	176	3.4	0
13	176	3.5	0
13	176	3.6	0
13	176	3.7	0
13	176	3.8	0
13	176	3.9	0
13	176	4	0
13	176	4.1	0
13	176	4.2	0
13	176	4.3	0
13	176	4.4	0
13	176	4.5	0
13	211	4.6	5920
13	211	4.7	0
13	211	4.8	0
13	211	4.9	0
13	211	5	0
13	211	5.1	0
13	211	5.2	0
13	211	5.3	0
13	211	5.4	0
13	211	5.5	0
13	211	5.6	0
13	211	5.7	0
13	211	5.8	0
13	211	5.9	0
13	211	6	0
13	211	6.1	0
13	211	6.2	0
13	211	6.3	0
13	211	6.4	0
13	211	6.5	0
13	267	6.6	5920
13	267	6.7	0
13	267	6.8	0
13	267	6.9	0
13	267	7	0
13	267	7.1	0
13	267	7.2	0
13	267	7.3	0
13	267	7.4	0
13	267	7.5	0
13	267	7.6	0
13	267	7.7	0
13	267	7.8	0
13	267	7.9	0
13	267	8	0
13	267	8.1	0
13	267	8.2	0
13	267	8.3	0
13	267	8.4	0
13	267	8.5	0
13	323	8.6	5920
13	323	8.7	0
13	323	8.8	0
13	323	8.9	0
13	323	9	0
13	323	9.1	0
13	323	9.2	0
13	323	9.3	0
13	323	9.4	0
13	323	9.5	0
13	323	9.6	0
13	323	9.7	0
13	323	9.8	0
13	323	9.9	0
13	323	10	0
13	323	10.1	0
13	323	10.2	0
13	323	10.3	0
13	323	10.4	0
13	323	10.5	0
13	358	10.6	5920
13	358	10.7	0
13	358	10.8	0
13	358	10.9	0
13	358	11	0
13	358	11.1	0
13	358	11.2	0
13	358	11.3	0
13	358	11.4	0
13	358	11.5	0
13	358	11.6	0
13	358	11.7	0
13	358	11.8	0
13	358	11.9	0
13	358	12	0
13	358	12.1	0
13	358	12.2	0
13	358	12.3	0
13	358	12.4	0
13	358	12.5	0
13	414	12.6	5920
13	414	12.7	0
13	414	12.8	0
13	414	12.9	0
13	414	13	0
13	414	13.1	0
13	414	13.2	0
13	414	13.3	0
13	414	13.4	0
13	414	13.5	0
13	414	13.6	0
13	414	13.7	0
13	414	13.8	0
13	414	13.9	0
13	414	14	0
13	414	14.1	0
13	414	14.2	0
13	414	14.3	0
13	414	14.4	0
13	414	14.5	0
13	470	14.6	5920
13	470	14.7	0
13	470	14.8	0
13	470	14.9	0
13	470	15	0
13	470	15.1	0
13	470	15.2	0
13	470	15.3	0
13	470	15.4	0
13	470	15.5	0
13	470	15.6	0
13	470	15.7	0
13	470	15.8	0
13	470	15.9	0
13	470	16	0
13	470	16.1	0
13	470	16.2	0
13	470	16.3	0
13	470	16.4	0
13	470	16.5	0
13	505	16.6	5920
13	505	16.7	0
13	505	16.8	0
13	505	16.9	0
13	505	17	0
13	505	17.1	0
13	505	17.2	0
13	505	17.3	0
13	505	17.4	0
13	505	17.5	0
13	505	17.6	0
13	505	17.7	0
13	505	17.8	0
13	505	17.9	0
13	505	18	0
13	505	18.1	0
13	505	18.2	0
13	505	18.3	0
13	505	18.4	0
13	505	18.5	0
13	548	18.6	5920
13	548	18.7	0
13	548	18.8	0
13	548	18.9	0
13	548	19	0
13	548	19.1	0
13	548	19.2	0
13	548	19.3	0
13	548	19.4	0
13	548	19.5	0
13	548	19.6	0
13	548	19.7	0
13	548	19.8	0
13	548	19.9	0
13	548	20	0
18	35	0.549248862304	64
18	50	0.549467742304	74
18	121	2.549044702304	74
18	177	4.549044702304	74
18	212	6.549044702304	74
18	268	8.549044702304	74
18	324	10.549044702304	74
18	359	12.549044702304	74
18	415	14.549044702304	74
18	471	16.549044702304	74
18	506	18.549044702304	74
19	30	0.549243102304	64
19	44	0.549461182304	146
19	115	2.549038142304	146
19	171	4.549038142304	146
19	206	6.549038142304	146
19	262	8.549038142304	146
19	318	10.549038142304	146
19	353	12.549038142304	146
19	409	14.549038142304	146
19	465	16.549038142304	146
19	500	18.549038142304	146
20	30	0.549243102304	64
20	44	0.549461182304	146
20	115	2.549038142304	146
20	171	4.549038142304	146
20	206	6.549038142304	146
20	262	8.549038142304	146
20	318	10.549038142304	146
20	353	12.549038142304	146
20	409	14.549038142304	146
20	465	16.549038142304	146
20	500	18.549038142304	146
23	34	0.549243102304	46
23	49	0.549461182304	74
23	120	2.549038142304	74
23	176	4.549038142304	74
23	211	6.549038142304	74
23	267	8.549038142304	74
23	323	10.549038142304	74
23	358	12.549038142304	74
23	414	14.549038142304	74
23	470	16.549038142304	74
23	505	18.549038142304	74
36	32	0.549243102304	28
37	12	0.548919262304	28
37	26	0.549137342304	28
37	40	0.549348862304	128
37	55	0.549567742304	56
37	76	0.592950376389	28
37	91	0.593176456389	56
37	111	2.548925822304	128
37	126	2.549144702304	56
37	147	3.592964936389	56
37	167	4.548925822304	128
37	182	4.549144702304	56
37	202	6.548925822304	128
37	217	6.549144702304	56
37	238	6.592964936389	56
37	258	8.548925822304	128
37	273	8.549144702304	56
37	294	9.592964936389	56
37	314	10.548925822304	128
37	329	10.549144702304	56
37	349	12.548925822304	128
37	364	12.549144702304	56
37	385	12.592964936389	56
37	405	14.548925822304	128
37	420	14.549144702304	56
37	441	15.592964936389	56
37	461	16.548925822304	128
37	476	16.549144702304	56
37	496	18.548925822304	128
37	511	18.549144702304	56
37	532	18.592964936389	56
38	10	0.548919262304	46
38	24	0.549137342304	128
38	38	0.549348862304	46
38	53	0.549567742304	56
38	74	0.592950376389	46
38	88	0.593176456389	228
38	109	2.548925822304	128
38	124	2.549144702304	56
38	144	3.592964936389	228
38	165	4.548925822304	128
38	180	4.549144702304	56
38	200	6.548925822304	128
38	215	6.549144702304	56
38	235	6.592964936389	228
38	256	8.548925822304	128
38	271	8.549144702304	56
38	291	9.592964936389	228
38	312	10.548925822304	128
38	327	10.549144702304	56
38	347	12.548925822304	128
38	362	12.549144702304	56
38	382	12.592964936389	228
38	403	14.548925822304	128
38	418	14.549144702304	56
38	438	15.592964936389	228
38	459	16.548925822304	128
38	474	16.549144702304	56
38	494	18.548925822304	128
38	509	18.549144702304	56
38	529	18.592964936389	228
44	0	0	0
44	0	0	0
44	0	0	0
44	0	0	0
44	0	0	0
44	13	0.548919262304	0
44	56	0.549567742304	0
44	127	2.549144702304	0
44	183	4.549144702304	0
44	218	6.549144702304	0
44	274	8.549144702304	0
44	330	10.549144702304	0
44	365	12.549144702304	0
44	421	14.549144702304	0
44	477	16.549144702304	0
44	512	18.549144702304	0
45	0	0	0
45	0	0	0
45	0	0	0
45	0	0	0
45	0	0	0
45	13	0.548919262304	0
45	56	0.549567742304	0
45	127	2.549144702304	0
45	183	4.549144702304	0
45	218	6.549144702304	0
45	274	8.549144702304	0
45	330	10.549144702304	0
45	365	12.549144702304	0
45	421	14.549144702304	0
45	477	16.549144702304	0
45	512	18.549144702304	0
46	13	0.548919262304	0
46	56	0.549567742304	0
46	127	2.549144702304	0
46	183	4.549144702304	0
46	218	6.549144702304	0
46	274	8.549144702304	0
46	330	10.549144702304	0
46	365	12.549144702304	0
46	421	14.549144702304	0
46	477	16.549144702304	0
46	512	18.549144702304	0
47	13	0.548919262304	368
47	56	0.549567742304	592
47	127	2.549144702304	592
47	183	4.549144702304	592
47	218	6.549144702304	592
47	274	8.549144702304	592
47	330	10.549144702304	592
47	365	12.549144702304	592
47	421	14.549144702304	592
47	477	16.549144702304	592
47	512	18.549144702304	592
48	13	0.1	0
48	13	0.2	0
48	13	0.3	0
48	13	0.4	0
48	13	0.5	0
48	127	0.6	9600
48	127	0.7	0
48	127	0.8	0
48	127	0.9	0
48	127	1	0
48	127	1.1	0
48	127	1.2	0
48	127	1.3	0
48	127	1.4	0
48	127	1.5	0
48	127	1.6	0
48	127	1.7	0
48	127	1.8	0
48	127	1.9	0
48	127	2	0
48	127	2.1	0
48	127	2.2	0
48	127	2.3	0
48	127	2.4	0
48	127	2.5	0
48	183	2.6	5920
48	183	2.7	0
48	183	2.8	0
48	183	2.9	0
48	183	3	0
48	183	3.1	0
48	183	3.2	0
48	183	3.3	0
48	183	3.4	0
48	183	3.5	0
48	183	3.6	0
48	183	3.7	0
48	183	3.8	0
48	183	3.9	0
48	183	4	0
48	183	4.1	0
48	183	4.2	0
48	183	4.3	0
48	183	4.4	0
48	183	4.5	0
48	218	4.6	5920
48	218	4.7	0
48	218	4.8	0
48	218	4.9	0
48	218	5	0
48	218	5.1	0
48	218	5.2	0
48	218	5.3	0
48	218	5.4	0
48	218	5.5	0
48	218	5.6	0
48	218	5.7	0
48	218	5.8	0
48	218	5.9	0
48	218	6	0
48	218	6.1	0
48	218	6.2	0
48	218	6.3	0
48	218	6.4	0
48	218	6.5	0
48	274	6.6	5920
48	274	6.7	0
48	274	6.8	0
48	274	6.9	0
48	274	7	0
48	274	7.1	0
48	274	7.2	0
48	274	7.3	0
48	274	7.4	0
48	274	7.5	0
48	274	7.6	0
48	274	7.7	0
48	274	7.8	0
48	274	7.9	0
48	274	8	0
48	274	8.1	0
48	274	8.2	0
48	274	8.3	0
48	274	8.4	0
48	274	8.5	0
48	330	8.6	5920
48	330	8.7	0
48	330	8.8	0
48	330	8.9	0
48	330	9	0
48	330	9.1	0
48	330	9.2	0
48	330	9.3	0
48	330	9.4	0
48	330	9.5	0
48	330	9.6	0
48	330	9.7	0
48	330	9.8	0
48	330	9.9	0
48	330	10	0
48	330	10.1	0
48	330	10.2	0
48	330	10.3	0
48	330	10.4	0
48	330	10.5	0
48	365	10.6	5920
48	365	10.7	0
48	365	10.8	0
48	365	10.9	0
48	365	11	0
48	365	11.1	0
48	365	11.2	0
48	365	11.3	0
48	365	11.4	0
48	365	11.5	0
48	365	11.6	0
48	365	11.7	0
48	365	11.8	0
48	365	11.9	0
48	365	12	0
48	365	12.1	0
48	365	12.2	0
48	365	12.3	0
48	365	12.4	0
48	365	12.5	0
48	421	12.6	5920
48	421	12.7	0
48	421	12.8	0
48	421	12.9	0
48	421	13	0
48	421	13.1	0
48	421	13.2	0
48	421	13.3	0
48	421	13.4	0
48	421	13.5	0
48	421	13.6	0
48	421	13.7	0
48	421	13.8	0
48	421	13.9	0
48	421	14	0
48	421	14.1	0
48	421	14.2	0
48	421	14.3	0
48	421	14.4	0
48	421	14.5	0
48	477	14.6	5920
48	477	14.7	0
48	477	14.8	0
48	477	14.9	0
48	477	15	0
48	477	15.1	0
48	477	15.2	0
48	477	15.3	0
48	477	15.4	0
48	477	15.5	0
48	477	15.6	0
48	477	15.7	0
48	477	15.8	0
48	477	15.9	0
48	477	16	0
48	477	16.1	0
48	477	16.2	0
48	477	16.3	0
48	477	16.4	0
48	477	16.5	0
48	512	16.6	5920
48	512	16.7	0
48	512	16.8	0
48	512	16.9	0
48	512	17	0
48	512	17.1	0
48	512	17.2	0
48	512	17.3	0
48	512	17.4	0
48	512	17.5	0
48	512	17.6	0
48	512	17.7	0
48	512	17.8	0
48	512	17.9	0
48	512	18	0
48	512	18.1	0
48	512	18.2	0
48	512	18.3	0
48	512	18.4	0
48	512	18.5	0
48	548	18.6	5920
48	548	18.7	0
48	548	18.8	0
48	548	18.9	0
48	548	19	0
48	548	19.1	0
48	548	19.2	0
48	548	19.3	0
48	548	19.4	0
48	548	19.5	0
48	548	19.6	0
48	548	19.7	0
48	548	19.8	0
48	548	19.9	0
48	548	20	0
49	13	0.548919262304	368
49	56	0.549567742304	592
49	127	2.549144702304	592
49	183	4.549144702304	592
49	218	6.549144702304	592
49	274	8.549144702304	592
49	330	10.549144702304	592
49	365	12.549144702304	592
49	421	14.549144702304	592
49	477	16.549144702304	592
49	512	18.549144702304	592
50	13	0.1	0
50	13	0.2	0
50	13	0.3	0
50	13	0.4	0
50	13	0.5	0
50	127	0.6	9600
50	127	0.7	0
50	127	0.8	0
50	127	0.9	0
50	127	1	0
50	127	1.1	0
50	127	1.2	0
50	127	1.3	0
50	127	1.4	0
50	127	1.5	0
50	127	1.6	0
50	127	1.7	0
50	127	1.8	0
50	127	1.9	0
50	127	2	0
50	127	2.1	0
50	127	2.2	0
50	127	2.3	0
50	127	2.4	0
50	127	2.5	0
50	183	2.6	5920
50	183	2.7	0
50	183	2.8	0
50	183	2.9	0
50	183	3	0
50	183	3.1	0
50	183	3.2	0
50	183	3.3	0
50	183	3.4	0
50	183	3.5	0
50	183	3.6	0
50	183	3.7	0
50	183	3.8	0
50	183	3.9	0
50	183	4	0
50	183	4.1	0
50	183	4.2	0
50	183	4.3	0
50	183	4.4	0
50	183	4.5	0
50	218	4.6	5920
50	218	4.7	0
50	218	4.8	0
50	218	4.9	0
50	218	5	0
50	218	5.1	0
50	218	5.2	0
50	218	5.3	0
50	218	5.4	0
50	218	5.5	0
50	218	5.6	0
50	218	5.7	0
50	218	5.8	0
50	218	5.9	0
50	218	6	0
50	218	6.1	0
50	218	6.2	0
50	218	6.3	0
50	218	6.4	0
50	218	6.5	0
50	274	6.6	5920
50	274	6.7	0
50	274	6.8	0
50	274	6.9	0
50	274	7	0
50	274	7.1	0
50	274	7.2	0
50	274	7.3	0
50	274	7.4	0
50	274	7.5	0
50	274	7.6	0
50	274	7.7	0
50	274	7.8	0
50	274	7.9	0
50	274	8	0
50	274	8.1	0
50	274	8.2	0
50	274	8.3	0
50	274	8.4	0
50	274	8.5	0
50	330	8.6	5920
50	330	8.7	0
50	330	8.8	0
50	330	8.9	0
50	330	9	0
50	330	9.1	0
50	330	9.2	0
50	330	9.3	0
50	330	9.4	0
50	330	9.5	0
50	330	9.6	0
50	330	9.7	0
50	330	9.8	0
50	330	9.9	0
50	330	10	0
50	330	10.1	0
50	330	10.2	0
50	330	10.3	0
50	330	10.4	0
50	330	10.5	0
50	365	10.6	5920
50	365	10.7	0
50	365	10.8	0
50	365	10.9	0
50	365	11	0
50	365	11.1	0
50	365	11.2	0
50	365	11.3	0
50	365	11.4	0
50	365	11.5	0
50	365	11.6	0
50	365	11.7	0
50	365	11.8	0
50	365	11.9	0
50	365	12	0
50	365	12.1	0
50	365	12.2	0
50	365	12.3	0
50	365	12.4	0
50	365	12.5	0
50	421	12.6	5920
50	421	12.7	0
50	421	12.8	0
50	421	12.9	0
50	421	13	0
50	421	13.1	0
50	421	13.2	0
50	421	13.3	0
50	421	13.4	0
50	421	13.5	0
50	421	13.6	0
50	421	13.7	0
50	421	13.8	0
50	421	13.9	0
50	421	14	0
50	421	14.1	0
50	421	14.2	0
50	421	14.3	0
50	421	14.4	0
50	421	14.5	0
50	477	14.6	5920
50	477	14.7	0
50	477	14.8	0
50	477	14.9	0
50	477	15	0
50	477	15.1	0
50	477	15.2	0
50	477	15.3	0
50	477	15.4	0
50	477	15.5	0
50	477	15.6	0
50	477	15.7	0
50	477	15.8	0
50	477	15.9	0
50	477	16	0
50	477	16.1	0
50	477	16.2	0
50	477	16.3	0
50	477	16.4	0
50	477	16.5	0
50	512	16.6	5920
50	512	16.7	0
50	512	16.8	0
50	512	16.9	0
50	512	17	0
50	512	17.1	0
50	512	17.2	0
50	512	17.3	0
50	512	17.4	0
50	512	17.5	0
50	512	17.6	0
50	512	17.7	0
50	512	17.8	0
50	512	17.9	0
50	512	18	0
50	512	18.1	0
50	512	18.2	0
50	512	18.3	0
50	512	18.4	0
50	512	18.5	0
50	548	18.6	5920
50	548	18.7	0
50	548	18.8	0
50	548	18.9	0
50	548	19	0
50	548	19.1	0
50	548	19.2	0
50	548	19.3	0
50	548	19.4	0
50	548	19.5	0
50	548	19.6	0
50	548	19.7	0
50	548	19.8	0
50	548	19.9	0
50	548	20	0
55	14	0.548925022304	64
55	57	0.549574302304	74
55	128	2.549151262304	74
55	184	4.549151262304	74
55	219	6.549151262304	74
55	275	8.549151262304	74
55	331	10.549151262304	74
55	366	12.549151262304	74
55	422	14.549151262304	74
55	478	16.549151262304	74
55	513	18.549151262304	74
56	9	0.548919262304	64
56	23	0.549137342304	146
56	108	2.548925822304	146
56	164	4.548925822304	146
56	199	6.548925822304	146
56	255	8.548925822304	146
56	311	10.548925822304	146
56	346	12.548925822304	146
56	402	14.548925822304	146
56	458	16.548925822304	146
56	493	18.548925822304	146
57	9	0.548919262304	64
57	23	0.549137342304	146
57	108	2.548925822304	146
57	164	4.548925822304	146
57	199	6.548925822304	146
57	255	8.548925822304	146
57	311	10.548925822304	146
57	346	12.548925822304	146
57	402	14.548925822304	146
57	458	16.548925822304	146
57	493	18.548925822304	146
60	13	0.548919262304	46
60	56	0.549567742304	74
60	127	2.549144702304	74
60	183	4.549144702304	74
60	218	6.549144702304	74
60	274	8.549144702304	74
60	330	10.549144702304	74
60	365	12.549144702304	74
60	421	14.549144702304	74
60	477	16.549144702304	74
60	512	18.549144702304	74
66	0	0	0
66	0	0	0
66	0	0	0
66	0	0	0
66	0	0	0
66	77	0.592950376389	0
66	92	0.593176456389	0
66	148	3.592964936389	0
66	239	6.592964936389	0
66	295	9.592964936389	0
66	386	12.592964936389	0
66	442	15.592964936389	0
66	533	18.592964936389	0
67	0	0	0
67	0	0	0
67	0	0	0
67	0	0	0
67	0	0	0
67	77	0.592950376389	0
67	92	0.593176456389	0
67	148	3.592964936389	0
67	239	6.592964936389	0
67	295	9.592964936389	0
67	386	12.592964936389	0
67	442	15.592964936389	0
67	533	18.592964936389	0
68	77	0.592950376389	0
68	92	0.593176456389	0
68	148	3.592964936389	0
68	239	6.592964936389	0
68	295	9.592964936389	0
68	386	12.592964936389	0
68	442	15.592964936389	0
68	533	18.592964936389	0
69	77	0.592950376389	368
69	92	0.593176456389	592
69	148	3.592964936389	592
69	239	6.592964936389	592
69	295	9.592964936389	592
69	386	12.592964936389	592
69	442	15.592964936389	592
69	533	18.592964936389	592
70	77	0.1	0
70	77	0.2	0
70	77	0.3	0
70	77	0.4	0
70	77	0.5	0
70	148	0.6	9600
70	148	0.7	0
70	148	0.8	0
70	148	0.9	0
70	148	1	0
70	148	1.1	0
70	148	1.2	0
70	148	1.3	0
70	148	1.4	0
70	148	1.5	0
70	148	1.6	0
70	148	1.7	0
70	148	1.8	0
70	148	1.9	0
70	148	2	0
70	148	2.1	0
70	148	2.2	0
70	148	2.3	0
70	148	2.4	0
70	148	2.5	0
70	148	2.6	0
70	148	2.7	0
70	148	2.8	0
70	148	2.9	0
70	148	3	0
70	148	3.1	0
70	148	3.2	0
70	148	3.3	0
70	148	3.4	0
70	148	3.5	0
70	239	3.6	5920
70	239	3.7	0
70	239	3.8	0
70	239	3.9	0
70	239	4	0
70	239	4.1	0
70	239	4.2	0
70	239	4.3	0
70	239	4.4	0
70	239	4.5	0
70	239	4.6	0
70	239	4.7	0
70	239	4.8	0
70	239	4.9	0
70	239	5	0
70	239	5.1	0
70	239	5.2	0
70	239	5.3	0
70	239	5.4	0
70	239	5.5	0
70	239	5.6	0
70	239	5.7	0
70	239	5.8	0
70	239	5.9	0
70	239	6	0
70	239	6.1	0
70	239	6.2	0
70	239	6.3	0
70	239	6.4	0
70	239	6.5	0
70	295	6.6	5920
70	295	6.7	0
70	295	6.8	0
70	295	6.9	0
70	295	7	0
70	295	7.1	0
70	295	7.2	0
70	295	7.3	0
70	295	7.4	0
70	295	7.5	0
70	295	7.6	0
70	295	7.7	0
70	295	7.8	0
70	295	7.9	0
70	295	8	0
70	295	8.1	0
70	295	8.2	0
70	295	8.3	0
70	295	8.4	0
70	295	8.5	0
70	295	8.6	0
70	295	8.7	0
70	295	8.8	0
70	295	8.9	0
70	295	9	0
70	295	9.1	0
70	295	9.2	0
70	295	9.3	0
70	295	9.4	0
70	295	9.5	0
70	386	9.6	5920
70	386	9.7	0
70	386	9.8	0
70	386	9.9	0
70	386	10	0
70	386	10.1	0
70	386	10.2	0
70	386	10.3	0
70	386	10.4	0
70	386	10.5	0
70	386	10.6	0
70	386	10.7	0
70	386	10.8	0
70	386	10.9	0
70	386	11	0
70	386	11.1	0
70	386	11.2	0
70	386	11.3	0
70	386	11.4	0
70	386	11.5	0
70	386	11.6	0
70	386	11.7	0
70	386	11.8	0
70	386	11.9	0
70	386	12	0
70	386	12.1	0
70	386	12.2	0
70	386	12.3	0
70	386	12.4	0
70	386	12.5	0
70	442	12.6	5920
70	442	12.7	0
70	442	12.8	0
70	442	12.9	0
70	442	13	0
70	442	13.1	0
70	442	13.2	0
70	442	13.3	0
70	442	13.4	0
70	442	13.5	0
70	442	13.6	0
70	442	13.7	0
70	442	13.8	0
70	442	13.9	0
70	442	14	0
70	442	14.1	0
70	442	14.2	0
70	442	14.3	0
70	442	14.4	0
70	442	14.5	0
70	442	14.6	0
70	442	14.7	0
70	442	14.8	0
70	442	14.9	0
70	442	15	0
70	442	15.1	0
70	442	15.2	0
70	442	15.3	0
70	442	15.4	0
70	442	15.5	0
70	533	15.6	5920
70	533	15.7	0
70	533	15.8	0
70	533	15.9	0
70	533	16	0
70	533	16.1	0
70	533	16.2	0
70	533	16.3	0
70	533	16.4	0
70	533	16.5	0
70	533	16.6	0
70	533	16.7	0
70	533	16.8	0
70	533	16.9	0
70	533	17	0
70	533	17.1	0
70	533	17.2	0
70	533	17.3	0
70	533	17.4	0
70	533	17.5	0
70	533	17.6	0
70	533	17.7	0
70	533	17.8	0
70	533	17.9	0
70	533	18	0
70	533	18.1	0
70	533	18.2	0
70	533	18.3	0
70	533	18.4	0
70	533	18.5	0
70	548	18.6	5920
70	548	18.7	0
70	548	18.8	0
70	548	18.9	0
70	548	19	0
70	548	19.1	0
70	548	19.2	0
70	548	19.3	0
70	548	19.4	0
70	548	19.5	0
70	548	19.6	0
70	548	19.7	0
70	548	19.8	0
70	548	19.9	0
70	548	20	0
71	77	0.592950376389	368
71	92	0.593176456389	592
71	148	3.592964936389	592
71	239	6.592964936389	592
71	295	9.592964936389	592
71	386	12.592964936389	592
71	442	15.592964936389	592
71	533	18.592964936389	592
72	77	0.1	0
72	77	0.2	0
72	77	0.3	0
72	77	0.4	0
72	77	0.5	0
72	148	0.6	9600
72	148	0.7	0
72	148	0.8	0
72	148	0.9	0
72	148	1	0
72	148	1.1	0
72	148	1.2	0
72	148	1.3	0
72	148	1.4	0
72	148	1.5	0
72	148	1.6	0
72	148	1.7	0
72	148	1.8	0
72	148	1.9	0
72	148	2	0
72	148	2.1	0
72	148	2.2	0
72	148	2.3	0
72	148	2.4	0
72	148	2.5	0
72	148	2.6	0
72	148	2.7	0
72	148	2.8	0
72	148	2.9	0
72	148	3	0
72	148	3.1	0
72	148	3.2	0
72	148	3.3	0
72	148	3.4	0
72	148	3.5	0
72	239	3.6	5920
72	239	3.7	0
72	239	3.8	0
72	239	3.9	0
72	239	4	0
72	239	4.1	0
72	239	4.2	0
72	239	4.3	0
72	239	4.4	0
72	239	4.5	0
72	239	4.6	0
72	239	4.7	0
72	239	4.8	0
72	239	4.9	0
72	239	5	0
72	239	5.1	0
72	239	5.2	0
72	239	5.3	0
72	239	5.4	0
72	239	5.5	0
72	239	5.6	0
72	239	5.7	0
72	239	5.8	0
72	239	5.9	0
72	239	6	0
72	239	6.1	0
72	239	6.2	0
72	239	6.3	0
72	239	6.4	0
72	239	6.5	0
72	295	6.6	5920
72	295	6.7	0
72	295	6.8	0
72	295	6.9	0
72	295	7	0
72	295	7.1	0
72	295	7.2	0
72	295	7.3	0
72	295	7.4	0
72	295	7.5	0
72	295	7.6	0
72	295	7.7	0
72	295	7.8	0
72	295	7.9	0
72	295	8	0
72	295	8.1	0
72	295	8.2	0
72	295	8.3	0
72	295	8.4	0
72	295	8.5	0
72	295	8.6	0
72	295	8.7	0
72	295	8.8	0
72	295	8.9	0
72	295	9	0
72	295	9.1	0
72	295	9.2	0
72	295	9.3	0
72	295	9.4	0
72	295	9.5	0
72	386	9.6	5920
72	386	9.7	0
72	386	9.8	0
72	386	9.9	0
72	386	10	0
72	386	10.1	0
72	386	10.2	0
72	386	10.3	0
72	386	10.4	0
72	386	10.5	0
72	386	10.6	0
72	386	10.7	0
72	386	10.8	0
72	386	10.9	0
72	386	11	0
72	386	11.1	0
72	386	11.2	0
72	386	11.3	0
72	386	11.4	0
72	386	11.5	0
72	386	11.6	0
72	386	11.7	0
72	386	11.8	0
72	386	11.9	0
72	386	12	0
72	386	12.1	0
72	386	12.2	0
72	386	12.3	0
72	386	12.4	0
72	386	12.5	0
72	442	12.6	5920
72	442	12.7	0
72	442	12.8	0
72	442	12.9	0
72	442	13	0
72	442	13.1	0
72	442	13.2	0
72	442	13.3	0
72	442	13.4	0
72	442	13.5	0
72	442	13.6	0
72	442	13.7	0
72	442	13.8	0
72	442	13.9	0
72	442	14	0
72	442	14.1	0
72	442	14.2	0
72	442	14.3	0
72	442	14.4	0
72	442	14.5	0
72	442	14.6	0
72	442	14.7	0
72	442	14.8	0
72	442	14.9	0
72	442	15	0
72	442	15.1	0
72	442	15.2	0
72	442	15.3	0
72	442	15.4	0
72	442	15.5	0
72	533	15.6	5920
72	533	15.7	0
72	533	15.8	0
72	533	15.9	0
72	533	16	0
72	533	16.1	0
72	533	16.2	0
72	533	16.3	0
72	533	16.4	0
72	533	16.5	0
72	533	16.6	0
72	533	16.7	0
72	533	16.8	0
72	533	16.9	0
72	533	17	0
72	533	17.1	0
72	533	17.2	0
72	533	17.3	0
72	533	17.4	0
72	533	17.5	0
72	533	17.6	0
72	533	17.7	0
72	533	17.8	0
72	533	17.9	0
72	533	18	0
72	533	18.1	0
72	533	18.2	0
72	533	18.3	0
72	533	18.4	0
72	533	18.5	0
72	548	18.6	5920
72	548	18.7	0
72	548	18.8	0
72	548	18.9	0
72	548	19	0
72	548	19.1	0
72	548	19.2	0
72	548	19.3	0
72	548	19.4	0
72	548	19.5	0
72	548	19.6	0
72	548	19.7	0
72	548	19.8	0
72	548	19.9	0
72	548	20	0
77	78	0.592956136389	64
77	93	0.593183016389	74
77	149	3.592971496389	74
77	240	6.592971496389	74
77	296	9.592971496389	74
77	387	12.592971496389	74
77	443	15.592971496389	74
77	534	18.592971496389	74
78	73	0.592950376389	64
78	87	0.593176456389	246
78	143	3.592964936389	246
78	234	6.592964936389	246
78	290	9.592964936389	246
78	381	12.592964936389	246
78	437	15.592964936389	246
78	528	18.592964936389	246
79	73	0.592950376389	64
79	87	0.593176456389	246
[...]
129	455	15.7	0
129	455	15.8	0
129	455	15.9	0
129	455	16	0
129	455	16.1	0
129	455	16.2	0
129	455	16.3	0
129	455	16.4	0
129	455	16.5	0
129	490	16.6	11680
129	490	16.7	0
129	490	16.8	0
129	490	16.9	0
129	490	17	0
129	490	17.1	0
129	490	17.2	0
129	490	17.3	0
129	490	17.4	0
129	490	17.5	0
129	490	17.6	0
129	490	17.7	0
129	490	17.8	0
129	490	17.9	0
129	490	18	0
129	490	18.1	0
129	490	18.2	0
129	490	18.3	0
129	490	18.4	0
129	490	18.5	0
129	548	18.6	11680
129	548	18.7	0
129	548	18.8	0
129	548	18.9	0
129	548	19	0
129	548	19.1	0
129	548	19.2	0
129	548	19.3	0
129	548	19.4	0
129	548	19.5	0
129	548	19.6	0
129	548	19.7	0
129	548	19.8	0
129	548	19.9	0
129	548	20	0
130	6	0.548813502304	368
130	20	0.549025022304	1168
130	105	2.548813502304	1168
130	161	4.548813502304	1168
130	196	6.548813502304	1168
130	252	8.548813502304	1168
130	308	10.548813502304	1168
130	343	12.548813502304	1168
130	399	14.548813502304	1168
130	455	16.548813502304	1168
130	490	18.548813502304	1168
131	6	0.1	0
131	6	0.2	0
131	6	0.3	0
131	6	0.4	0
131	6	0.5	0
131	105	0.6	15360
131	105	0.7	0
131	105	0.8	0
131	105	0.9	0
131	105	1	0
131	105	1.1	0
131	105	1.2	0
131	105	1.3	0
131	105	1.4	0
131	105	1.5	0
131	105	1.6	0
131	105	1.7	0
131	105	1.8	0
131	105	1.9	0
131	105	2	0
131	105	2.1	0
131	105	2.2	0
131	105	2.3	0
131	105	2.4	0
131	105	2.5	0
131	161	2.6	11680
131	161	2.7	0
131	161	2.8	0
131	161	2.9	0
131	161	3	0
131	161	3.1	0
131	161	3.2	0
131	161	3.3	0
131	161	3.4	0
131	161	3.5	0
131	161	3.6	0
131	161	3.7	0
131	161	3.8	0
131	161	3.9	0
131	161	4	0
131	161	4.1	0
131	161	4.2	0
131	161	4.3	0
131	161	4.4	0
131	161	4.5	0
131	196	4.6	11680
131	196	4.7	0
131	196	4.8	0
131	196	4.9	0
131	196	5	0
131	196	5.1	0
131	196	5.2	0
131	196	5.3	0
131	196	5.4	0
131	196	5.5	0
131	196	5.6	0
131	196	5.7	0
131	196	5.8	0
131	196	5.9	0
131	196	6	0
131	196	6.1	0
131	196	6.2	0
131	196	6.3	0
131	196	6.4	0
131	196	6.5	0
131	252	6.6	11680
131	252	6.7	0
131	252	6.8	0
131	252	6.9	0
131	252	7	0
131	252	7.1	0
131	252	7.2	0
131	252	7.3	0
131	252	7.4	0
131	252	7.5	0
131	252	7.6	0
131	252	7.7	0
131	252	7.8	0
131	252	7.9	0
131	252	8	0
131	252	8.1	0
131	252	8.2	0
131	252	8.3	0
131	252	8.4	0
131	252	8.5	0
131	308	8.6	11680
131	308	8.7	0
131	308	8.8	0
131	308	8.9	0
131	308	9	0
131	308	9.1	0
131	308	9.2	0
131	308	9.3	0
131	308	9.4	0
131	308	9.5	0
131	308	9.6	0
131	308	9.7	0
131	308	9.8	0
131	308	9.9	0
131	308	10	0
131	308	10.1	0
131	308	10.2	0
131	308	10.3	0
131	308	10.4	0
131	308	10.5	0
131	343	10.6	11680
131	343	10.7	0
131	343	10.8	0
131	343	10.9	0
131	343	11	0
131	343	11.1	0
131	343	11.2	0
131	343	11.3	0
131	343	11.4	0
131	343	11.5	0
131	343	11.6	0
131	343	11.7	0
131	343	11.8	0
131	343	11.9	0
131	343	12	0
131	343	12.1	0
131	343	12.2	0
131	343	12.3	0
131	343	12.4	0
131	343	12.5	0
131	399	12.6	11680
131	399	12.7	0
131	399	12.8	0
131	399	12.9	0
131	399	13	0
131	399	13.1	0
131	399	13.2	0
131	399	13.3	0
131	399	13.4	0
131	399	13.5	0
131	399	13.6	0
131	399	13.7	0
131	399	13.8	0
131	399	13.9	0
131	399	14	0
131	399	14.1	0
131	399	14.2	0
131	399	14.3	0
131	399	14.4	0
131	399	14.5	0
131	455	14.6	11680
131	455	14.7	0
131	455	14.8	0
131	455	14.9	0
131	455	15	0
131	455	15.1	0
131	455	15.2	0
131	455	15.3	0
131	455	15.4	0
131	455	15.5	0
131	455	15.6	0
131	455	15.7	0
131	455	15.8	0
131	455	15.9	0
131	455	16	0
131	455	16.1	0
131	455	16.2	0
131	455	16.3	0
131	455	16.4	0
131	455	16.5	0
131	490	16.6	11680
131	490	16.7	0
131	490	16.8	0
131	490	16.9	0
131	490	17	0
131	490	17.1	0
131	490	17.2	0
131	490	17.3	0
131	490	17.4	0
131	490	17.5	0
131	490	17.6	0
131	490	17.7	0
131	490	17.8	0
131	490	17.9	0
131	490	18	0
131	490	18.1	0
131	490	18.2	0
131	490	18.3	0
131	490	18.4	0
131	490	18.5	0
131	548	18.6	11680
131	548	18.7	0
131	548	18.8	0
131	548	18.9	0
131	548	19	0
131	548	19.1	0
131	548	19.2	0
131	548	19.3	0
131	548	19.4	0
131	548	19.5	0
131	548	19.6	0
131	548	19.7	0
131	548	19.8	0
131	548	19.9	0
131	548	20	0
136	7	0.548819262304	64
136	21	0.549037342304	146
136	106	2.548825822304	146
136	162	4.548825822304	146
136	197	6.548825822304	146
136	253	8.548825822304	146
136	309	10.548825822304	146
136	344	12.548825822304	146
136	400	14.548825822304	146
136	456	16.548825822304	146
136	491	18.548825822304	146
137	16	0.549025022304	64
137	59	0.549674302304	74
137	130	2.549251262304	74
137	186	4.549251262304	74
137	221	6.549251262304	74
137	277	8.549251262304	74
137	333	10.549251262304	74
137	368	12.549251262304	74
137	424	14.549251262304	74
137	480	16.549251262304	74
137	515	18.549251262304	74
138	16	0.549025022304	64
138	59	0.549674302304	74
138	130	2.549251262304	74
138	186	4.549251262304	74
138	221	6.549251262304	74
138	277	8.549251262304	74
138	333	10.549251262304	74
138	368	12.549251262304	74
138	424	14.549251262304	74
138	480	16.549251262304	74
138	515	18.549251262304	74
141	6	0.548813502304	46
141	20	0.549025022304	146
141	105	2.548813502304	146
141	161	4.548813502304	146
141	196	6.548813502304	146
141	252	8.548813502304	146
141	308	10.548813502304	146
141	343	12.548813502304	146
141	399	14.548813502304	146
141	455	16.548813502304	146
141	490	18.548813502304	146
153	4	0.548813502304	28
155	3	0.548813502304	108
155	102	2.548813502304	108
155	158	4.548813502304	108
155	193	6.548813502304	108
155	249	8.548813502304	108
155	305	10.548813502304	108
155	340	12.548813502304	108
155	396	14.548813502304	108
155	452	16.548813502304	108
155	487	18.548813502304	108
157	0	0	0
158	0	0	0
159	0	0	0
161	548	0.1	0
161	548	0.2	0
161	548	0.3	0
161	548	0.4	0
161	548	0.5	0
161	548	0.6	0
161	548	0.7	0
161	548	0.8	0
161	548	0.9	0
161	548	1	0
161	548	1.1	0
161	548	1.2	0
161	548	1.3	0
161	548	1.4	0
161	548	1.5	0
161	548	1.6	0
161	548	1.7	0
161	548	1.8	0
161	548	1.9	0
161	548	2	0
161	548	2.1	0
161	548	2.2	0
161	548	2.3	0
161	548	2.4	0
161	548	2.5	0
161	548	2.6	0
161	548	2.7	0
161	548	2.8	0
161	548	2.9	0
161	548	3	0
161	548	3.1	0
161	548	3.2	0
161	548	3.3	0
161	548	3.4	0
161	548	3.5	0
161	548	3.6	0
161	548	3.7	0
161	548	3.8	0
161	548	3.9	0
161	548	4	0
161	548	4.1	0
161	548	4.2	0
161	548	4.3	0
161	548	4.4	0
161	548	4.5	0
161	548	4.6	0
161	548	4.7	0
161	548	4.8	0
161	548	4.9	0
161	548	5	0
161	548	5.1	0
161	548	5.2	0
161	548	5.3	0
161	548	5.4	0
161	548	5.5	0
161	548	5.6	0
161	548	5.7	0
161	548	5.8	0
161	548	5.9	0
161	548	6	0
161	548	6.1	0
161	548	6.2	0
161	548	6.3	0
161	548	6.4	0
161	548	6.5	0
161	548	6.6	0
161	548	6.7	0
161	548	6.8	0
161	548	6.9	0
161	548	7	0
161	548	7.1	0
161	548	7.2	0
161	548	7.3	0
161	548	7.4	0
161	548	7.5	0
161	548	7.6	0
161	548	7.7	0
161	548	7.8	0
161	548	7.9	0
161	548	8	0
161	548	8.1	0
161	548	8.2	0
161	548	8.3	0
161	548	8.4	0
161	548	8.5	0
161	548	8.6	0
161	548	8.7	0
161	548	8.8	0
161	548	8.9	0
161	548	9	0
161	548	9.1	0
161	548	9.2	0
161	548	9.3	0
161	548	9.4	0
161	548	9.5	0
161	548	9.6	0
161	548	9.7	0
161	548	9.8	0
161	548	9.9	0
161	548	10	0
161	548	10.1	0
161	548	10.2	0
161	548	10.3	0
161	548	10.4	0
161	548	10.5	0
161	548	10.6	0
161	548	10.7	0
161	548	10.8	0
161	548	10.9	0
161	548	11	0
161	548	11.1	0
161	548	11.2	0
161	548	11.3	0
161	548	11.4	0
161	548	11.5	0
161	548	11.6	0
161	548	11.7	0
161	548	11.8	0
161	548	11.9	0
161	548	12	0
161	548	12.1	0
161	548	12.2	0
161	548	12.3	0
161	548	12.4	0
161	548	12.5	0
161	548	12.6	0
161	548	12.7	0
161	548	12.8	0
161	548	12.9	0
161	548	13	0
161	548	13.1	0
161	548	13.2	0
161	548	13.3	0
161	548	13.4	0
161	548	13.5	0
161	548	13.6	0
161	548	13.7	0
161	548	13.8	0
161	548	13.9	0
161	548	14	0
161	548	14.1	0
161	548	14.2	0
161	548	14.3	0
161	548	14.4	0
161	548	14.5	0
161	548	14.6	0
161	548	14.7	0
161	548	14.8	0
161	548	14.9	0
161	548	15	0
161	548	15.1	0
161	548	15.2	0
161	548	15.3	0
161	548	15.4	0
161	548	15.5	0
161	548	15.6	0
161	548	15.7	0
161	548	15.8	0
161	548	15.9	0
161	548	16	0
161	548	16.1	0
161	548	16.2	0
161	548	16.3	0
161	548	16.4	0
161	548	16.5	0
161	548	16.6	0
161	548	16.7	0
161	548	16.8	0
161	548	16.9	0
161	548	17	0
161	548	17.1	0
161	548	17.2	0
161	548	17.3	0
161	548	17.4	0
161	548	17.5	0
161	548	17.6	0
161	548	17.7	0
161	548	17.8	0
161	548	17.9	0
161	548	18	0
161	548	18.1	0
161	548	18.2	0
161	548	18.3	0
161	548	18.4	0
161	548	18.5	0
161	548	18.6	0
161	548	18.7	0
161	548	18.8	0
161	548	18.9	0
161	548	19	0
161	548	19.1	0
161	548	19.2	0
161	548	19.3	0
161	548	19.4	0
161	548	19.5	0
161	548	19.6	0
161	548	19.7	0
161	548	19.8	0
161	548	19.9	0
161	548	20	0
162	1	0.548813502304	100
162	101	2.548813502304	100
162	157	4.548813502304	100
162	192	6.548813502304	100
162	248	8.548813502304	100
162	304	10.548813502304	100
162	339	12.548813502304	100
162	395	14.548813502304	100
162	451	16.548813502304	100
162	486	18.548813502304	100
165	69	0.592844616389	28
165	83	0.593056136389	228
165	139	3.592844616389	228
165	230	6.592844616389	228
165	286	9.592844616389	228
165	377	12.592844616389	228
165	433	15.592844616389	228
165	524	18.592844616389	228
166	81	0.593056136389	46
166	96	0.593283016389	56
166	152	3.593071496389	56
166	243	6.593071496389	56
166	299	9.593071496389	56
166	390	12.593071496389	56
166	446	15.593071496389	56
166	537	18.593071496389	56
172	0	0	0
172	0	0	0
172	0	0	0
172	0	0	0
172	0	0	0
172	70	0.592844616389	0
172	84	0.593056136389	0
172	140	3.592844616389	0
172	231	6.592844616389	0
172	287	9.592844616389	0
172	378	12.592844616389	0
172	434	15.592844616389	0
172	525	18.592844616389	0
173	0	0	0
173	0	0	0
173	0	0	0
173	0	0	0
173	0	0	0
173	70	0.592844616389	0
173	84	0.593056136389	0
173	140	3.592844616389	0
173	231	6.592844616389	0
173	287	9.592844616389	0
173	378	12.592844616389	0
173	434	15.592844616389	0
173	525	18.592844616389	0
174	70	0.592844616389	0
174	84	0.593056136389	0
174	140	3.592844616389	0
174	231	6.592844616389	0
174	287	9.592844616389	0
174	378	12.592844616389	0
174	434	15.592844616389	0
174	525	18.592844616389	0
175	70	0.592844616389	368
175	84	0.593056136389	1968
175	140	3.592844616389	1968
175	231	6.592844616389	1968
175	287	9.592844616389	1968
175	378	12.592844616389	1968
175	434	15.592844616389	1968
175	525	18.592844616389	1968
176	70	0.1	0
176	70	0.2	0
176	70	0.3	0
176	70	0.4	0
176	70	0.5	0
176	140	0.6	23360
176	140	0.7	0
176	140	0.8	0
176	140	0.9	0
176	140	1	0
176	140	1.1	0
176	140	1.2	0
176	140	1.3	0
176	140	1.4	0
176	140	1.5	0
176	140	1.6	0
176	140	1.7	0
176	140	1.8	0
176	140	1.9	0
176	140	2	0
176	140	2.1	0
176	140	2.2	0
176	140	2.3	0
176	140	2.4	0
176	140	2.5	0
176	140	2.6	0
176	140	2.7	0
176	140	2.8	0
176	140	2.9	0
176	140	3	0
176	140	3.1	0
176	140	3.2	0
176	140	3.3	0
176	140	3.4	0
176	140	3.5	0
176	231	3.6	19680
176	231	3.7	0
176	231	3.8	0
176	231	3.9	0
176	231	4	0
176	231	4.1	0
176	231	4.2	0
176	231	4.3	0
176	231	4.4	0
176	231	4.5	0
176	231	4.6	0
176	231	4.7	0
176	231	4.8	0
176	231	4.9	0
176	231	5	0
176	231	5.1	0
176	231	5.2	0
176	231	5.3	0
176	231	5.4	0
176	231	5.5	0
176	231	5.6	0
176	231	5.7	0
176	231	5.8	0
176	231	5.9	0
176	231	6	0
176	231	6.1	0
176	231	6.2	0
176	231	6.3	0
176	231	6.4	0
176	231	6.5	0
176	287	6.6	19680
176	287	6.7	0
176	287	6.8	0
176	287	6.9	0
176	287	7	0
176	287	7.1	0
176	287	7.2	0
176	287	7.3	0
176	287	7.4	0
176	287	7.5	0
176	287	7.6	0
176	287	7.7	0
176	287	7.8	0
176	287	7.9	0
176	287	8	0
176	287	8.1	0
176	287	8.2	0
176	287	8.3	0
176	287	8.4	0
176	287	8.5	0
176	287	8.6	0
176	287	8.7	0
176	287	8.8	0
176	287	8.9	0
176	287	9	0
176	287	9.1	0
176	287	9.2	0
176	287	9.3	0
176	287	9.4	0
176	287	9.5	0
176	378	9.6	19680
176	378	9.7	0
176	378	9.8	0
176	378	9.9	0
176	378	10	0
176	378	10.1	0
176	378	10.2	0
176	378	10.3	0
176	378	10.4	0
176	378	10.5	0
176	378	10.6	0
176	378	10.7	0
176	378	10.8	0
176	378	10.9	0
176	378	11	0
176	378	11.1	0
176	378	11.2	0
176	378	11.3	0
176	378	11.4	0
176	378	11.5	0
176	378	11.6	0
176	378	11.7	0
176	378	11.8	0
176	378	11.9	0
176	378	12	0
176	378	12.1	0
176	378	12.2	0
176	378	12.3	0
176	378	12.4	0
176	378	12.5	0
176	434	12.6	19680
176	434	12.7	0
176	434	12.8	0
176	434	12.9	0
176	434	13	0
176	434	13.1	0
176	434	13.2	0
176	434	13.3	0
176	434	13.4	0
176	434	13.5	0
176	434	13.6	0
176	434	13.7	0
176	434	13.8	0
176	434	13.9	0
176	434	14	0
176	434	14.1	0
176	434	14.2	0
176	434	14.3	0
176	434	14.4	0
176	434	14.5	0
176	434	14.6	0
176	434	14.7	0
176	434	14.8	0
176	434	14.9	0
176	434	15	0
176	434	15.1	0
176	434	15.2	0
176	434	15.3	0
176	434	15.4	0
176	434	15.5	0
176	525	15.6	19680
176	525	15.7	0
176	525	15.8	0
176	525	15.9	0
176	525	16	0
176	525	16.1	0
176	525	16.2	0
176	525	16.3	0
176	525	16.4	0
176	525	16.5	0
176	525	16.6	0
176	525	16.7	0
176	525	16.8	0
176	525	16.9	0
176	525	17	0
176	525	17.1	0
176	525	17.2	0
176	525	17.3	0
176	525	17.4	0
176	525	17.5	0
176	525	17.6	0
176	525	17.7	0
176	525	17.8	0
176	525	17.9	0
176	525	18	0
176	525	18.1	0
176	525	18.2	0
176	525	18.3	0
176	525	18.4	0
176	525	18.5	0
176	548	18.6	19680
176	548	18.7	0
176	548	18.8	0
176	548	18.9	0
176	548	19	0
176	548	19.1	0
176	548	19.2	0
176	548	19.3	0
176	548	19.4	0
176	548	19.5	0
176	548	19.6	0
176	548	19.7	0
176	548	19.8	0
176	548	19.9	0
176	548	20	0
177	70	0.592844616389	368
177	84	0.593056136389	1968
177	140	3.592844616389	1968
177	231	6.592844616389	1968
177	287	9.592844616389	1968
177	378	12.592844616389	1968
177	434	15.592844616389	1968
177	525	18.592844616389	1968
178	70	0.1	0
178	70	0.2	0
178	70	0.3	0
178	70	0.4	0
178	70	0.5	0
178	140	0.6	23360
178	140	0.7	0
178	140	0.8	0
178	140	0.9	0
178	140	1	0
178	140	1.1	0
178	140	1.2	0
178	140	1.3	0
178	140	1.4	0
178	140	1.5	0
178	140	1.6	0
178	140	1.7	0
178	140	1.8	0
178	140	1.9	0
178	140	2	0
178	140	2.1	0
178	140	2.2	0
178	140	2.3	0
178	140	2.4	0
178	140	2.5	0
178	140	2.6	0
178	140	2.7	0
178	140	2.8	0
178	140	2.9	0
178	140	3	0
178	140	3.1	0
178	140	3.2	0
178	140	3.3	0
178	140	3.4	0
178	140	3.5	0
178	231	3.6	19680
178	231	3.7	0
178	231	3.8	0
178	231	3.9	0
178	231	4	0
178	231	4.1	0
178	231	4.2	0
178	231	4.3	0
178	231	4.4	0
178	231	4.5	0
178	231	4.6	0
178	231	4.7	0
178	231	4.8	0
178	231	4.9	0
178	231	5	0
178	231	5.1	0
178	231	5.2	0
178	231	5.3	0
178	231	5.4	0
178	231	5.5	0
178	231	5.6	0
178	231	5.7	0
178	231	5.8	0
178	231	5.9	0
178	231	6	0
178	231	6.1	0
178	231	6.2	0
178	231	6.3	0
178	231	6.4	0
178	231	6.5	0
178	287	6.6	19680
178	287	6.7	0
178	287	6.8	0
178	287	6.9	0
178	287	7	0
178	287	7.1	0
178	287	7.2	0
178	287	7.3	0
178	287	7.4	0
178	287	7.5	0
178	287	7.6	0
178	287	7.7	0
178	287	7.8	0
178	287	7.9	0
178	287	8	0
178	287	8.1	0
178	287	8.2	0
178	287	8.3	0
178	287	8.4	0
178	287	8.5	0
178	287	8.6	0
178	287	8.7	0
178	287	8.8	0
178	287	8.9	0
178	287	9	0
178	287	9.1	0
178	287	9.2	0
178	287	9.3	0
178	287	9.4	0
178	287	9.5	0
178	378	9.6	19680
178	378	9.7	0
178	378	9.8	0
178	378	9.9	0
178	378	10	0
178	378	10.1	0
178	378	10.2	0
178	378	10.3	0
178	378	10.4	0
178	378	10.5	0
178	378	10.6	0
178	378	10.7	0
178	378	10.8	0
178	378	10.9	0
178	378	11	0
178	378	11.1	0
178	378	11.2	0
178	378	11.3	0
178	378	11.4	0
178	378	11.5	0
178	378	11.6	0
178	378	11.7	0
178	378	11.8	0
178	378	11.9	0
178	378	12	0
178	378	12.1	0
178	378	12.2	0
178	378	12.3	0
178	378	12.4	0
178	378	12.5	0
178	434	12.6	19680
178	434	12.7	0
178	434	12.8	0
178	434	12.9	0
178	434	13	0
178	434	13.1	0
178	434	13.2	0
178	434	13.3	0
178	434	13.4	0
178	434	13.5	0
178	434	13.6	0
178	434	13.7	0
178	434	13.8	0
178	434	13.9	0
178	434	14	0
178	434	14.1	0
178	434	14.2	0
178	434	14.3	0
178	434	14.4	0
178	434	14.5	0
178	434	14.6	0
178	434	14.7	0
178	434	14.8	0
178	434	14.9	0
178	434	15	0
178	434	15.1	0
178	434	15.2	0
178	434	15.3	0
178	434	15.4	0
178	434	15.5	0
178	525	15.6	19680
178	525	15.7	0
178	525	15.8	0
178	525	15.9	0
178	525	16	0
178	525	16.1	0
178	525	16.2	0
178	525	16.3	0
178	525	16.4	0
178	525	16.5	0
178	525	16.6	0
178	525	16.7	0
178	525	16.8	0
178	525	16.9	0
178	525	17	0
178	525	17.1	0
178	525	17.2	0
178	525	17.3	0
178	525	17.4	0
178	525	17.5	0
178	525	17.6	0
178	525	17.7	0
178	525	17.8	0
178	525	17.9	0
178	525	18	0
178	525	18.1	0
178	525	18.2	0
178	525	18.3	0
178	525	18.4	0
178	525	18.5	0
178	548	18.6	19680
178	548	18.7	0
178	548	18.8	0
178	548	18.9	0
178	548	19	0
178	548	19.1	0
178	548	19.2	0
178	548	19.3	0
178	548	19.4	0
178	548	19.5	0
178	548	19.6	0
178	548	19.7	0
178	548	19.8	0
178	548	19.9	0
178	548	20	0
183	71	0.592850376389	64
183	85	0.593076456389	246
183	141	3.592864936389	246
183	232	6.592864936389	246
183	288	9.592864936389	246
183	379	12.592864936389	246
183	435	15.592864936389	246
183	526	18.592864936389	246
184	80	0.593056136389	64
184	95	0.593283016389	74
184	151	3.593071496389	74
184	242	6.593071496389	74
184	298	9.593071496389	74
184	389	12.593071496389	74
184	445	15.593071496389	74
184	536	18.593071496389	74
185	80	0.593056136389	64
185	95	0.593283016389	74
185	151	3.593071496389	74
185	242	6.593071496389	74
185	298	9.593071496389	74
185	389	12.593071496389	74
185	445	15.593071496389	74
185	536	18.593071496389	74
188	70	0.592844616389	46
188	84	0.593056136389	246
188	140	3.592844616389	246
188	231	6.592844616389	246
188	287	9.592844616389	246
188	378	12.592844616389	246
188	434	15.592844616389	246
188	525	18.592844616389	246
200	68	0.592844616389	28
202	67	0.592844616389	208
202	137	3.592844616389	208
202	228	6.592844616389	208
202	284	9.592844616389	208
202	375	12.592844616389	208
202	431	15.592844616389	208
202	522	18.592844616389	208
204	0	0	0
205	0	0	0
206	0	0	0
208	548	0.1	0
208	548	0.2	0
208	548	0.3	0
208	548	0.4	0
208	548	0.5	0
208	548	0.6	0
208	548	0.7	0
208	548	0.8	0
208	548	0.9	0
208	548	1	0
208	548	1.1	0
208	548	1.2	0
208	548	1.3	0
208	548	1.4	0
208	548	1.5	0
208	548	1.6	0
208	548	1.7	0
208	548	1.8	0
208	548	1.9	0
208	548	2	0
208	548	2.1	0
208	548	2.2	0
208	548	2.3	0
208	548	2.4	0
208	548	2.5	0
208	548	2.6	0
208	548	2.7	0
208	548	2.8	0
208	548	2.9	0
208	548	3	0
208	548	3.1	0
208	548	3.2	0
208	548	3.3	0
208	548	3.4	0
208	548	3.5	0
208	548	3.6	0
208	548	3.7	0
208	548	3.8	0
208	548	3.9	0
208	548	4	0
208	548	4.1	0
208	548	4.2	0
208	548	4.3	0
208	548	4.4	0
208	548	4.5	0
208	548	4.6	0
208	548	4.7	0
208	548	4.8	0
208	548	4.9	0
208	548	5	0
208	548	5.1	0
208	548	5.2	0
208	548	5.3	0
208	548	5.4	0
208	548	5.5	0
208	548	5.6	0
208	548	5.7	0
208	548	5.8	0
208	548	5.9	0
208	548	6	0
208	548	6.1	0
208	548	6.2	0
208	548	6.3	0
208	548	6.4	0
208	548	6.5	0
208	548	6.6	0
208	548	6.7	0
208	548	6.8	0
208	548	6.9	0
208	548	7	0
208	548	7.1	0
208	548	7.2	0
208	548	7.3	0
208	548	7.4	0
208	548	7.5	0
208	548	7.6	0
208	548	7.7	0
208	548	7.8	0
208	548	7.9	0
208	548	8	0
208	548	8.1	0
208	548	8.2	0
208	548	8.3	0
208	548	8.4	0
208	548	8.5	0
208	548	8.6	0
208	548	8.7	0
208	548	8.8	0
208	548	8.9	0
208	548	9	0
208	548	9.1	0
208	548	9.2	0
208	548	9.3	0
208	548	9.4	0
208	548	9.5	0
208	548	9.6	0
208	548	9.7	0
208	548	9.8	0
208	548	9.9	0
208	548	10	0
208	548	10.1	0
208	548	10.2	0
208	548	10.3	0
208	548	10.4	0
208	548	10.5	0
208	548	10.6	0
208	548	10.7	0
208	548	10.8	0
208	548	10.9	0
208	548	11	0
208	548	11.1	0
208	548	11.2	0
208	548	11.3	0
208	548	11.4	0
208	548	11.5	0
208	548	11.6	0
208	548	11.7	0
208	548	11.8	0
208	548	11.9	0
208	548	12	0
208	548	12.1	0
208	548	12.2	0
208	548	12.3	0
208	548	12.4	0
208	548	12.5	0
208	548	12.6	0
208	548	12.7	0
208	548	12.8	0
208	548	12.9	0
208	548	13	0
208	548	13.1	0
208	548	13.2	0
208	548	13.3	0
208	548	13.4	0
208	548	13.5	0
208	548	13.6	0
208	548	13.7	0
208	548	13.8	0
208	548	13.9	0
208	548	14	0
208	548	14.1	0
208	548	14.2	0
208	548	14.3	0
208	548	14.4	0
208	548	14.5	0
208	548	14.6	0
208	548	14.7	0
208	548	14.8	0
208	548	14.9	0
208	548	15	0
208	548	15.1	0
208	548	15.2	0
208	548	15.3	0
208	548	15.4	0
208	548	15.5	0
208	548	15.6	0
208	548	15.7	0
208	548	15.8	0
208	548	15.9	0
208	548	16	0
208	548	16.1	0
208	548	16.2	0
208	548	16.3	0
208	548	16.4	0
208	548	16.5	0
208	548	16.6	0
208	548	16.7	0
208	548	16.8	0
208	548	16.9	0
208	548	17	0
208	548	17.1	0
208	548	17.2	0
208	548	17.3	0
208	548	17.4	0
208	548	17.5	0
208	548	17.6	0
208	548	17.7	0
208	548	17.8	0
208	548	17.9	0
208	548	18	0
208	548	18.1	0
208	548	18.2	0
208	548	18.3	0
208	548	18.4	0
208	548	18.5	0
208	548	18.6	0
208	548	18.7	0
208	548	18.8	0
208	548	18.9	0
208	548	19	0
208	548	19.1	0
208	548	19.2	0
208	548	19.3	0
208	548	19.4	0
208	548	19.5	0
208	548	19.6	0
208	548	19.7	0
208	548	19.8	0
208	548	19.9	0
208	548	20	0
209	65	0.592844616389	200
209	136	3.592844616389	200
209	227	6.592844616389	200
209	283	9.592844616389	200
209	374	12.592844616389	200
209	430	15.592844616389	200
209	521	18.592844616389	200

