version 3
run General-0-20250109-16:16:12-267682
attr configname General
attr datetime 20250109-16:16:12
attr datetimef 20250109-161612
attr experiment General
attr inifile omnetpp.ini
attr iterationvars ""
attr iterationvarsd ""
attr iterationvarsf ""
attr measurement ""
attr network IoTCommunication
attr processid 267682
attr repetition 0
attr replication #0
attr resultdir results
attr runnumber 0
attr seedset 0
config image-path ../../inet4.5/images
config network IoTCommunication
config sim-time-limit 20s
config *.satellite.mobility.typename StationaryMobility
config *.satellite.mobility.initialX 400m
config *.satellite.mobility.initialY 100m
config *.satellite.mobility.initialZ 500km
config *.baseStation.mobility.typename StationaryMobility
config *.baseStation.mobility.initialX 400m
config *.baseStation.mobility.initialY 300m
config *.baseStation.mobility.initialZ 0m
config *.iotDevice[*].mobility.typename StationaryMobility
config *.iotDevice[0].mobility.initialX 300m
config *.iotDevice[0].mobility.initialY 500m
config *.iotDevice[0].mobility.initialZ 0m
config *.iotDevice[1].mobility.initialX 350m
config *.iotDevice[1].mobility.initialY 500m
config *.iotDevice[1].mobility.initialZ 0m
config *.iotDevice[2].mobility.initialX 400m
config *.iotDevice[2].mobility.initialY 500m
config *.iotDevice[2].mobility.initialZ 0m
config *.iotDevice[3].mobility.initialX 450m
config *.iotDevice[3].mobility.initialY 500m
config *.iotDevice[3].mobility.initialZ 0m
config *.iotDevice[4].mobility.initialX 500m
config *.iotDevice[4].mobility.initialY 500m
config *.iotDevice[4].mobility.initialZ 0m
config *.iotDevice[0].numApps 1
config *.iotDevice[0].app[0].typename UdpBasicApp
config *.iotDevice[0].app[0].destAddresses "\"satellite\""
config *.iotDevice[0].app[0].destPort 12345
config *.iotDevice[0].app[0].startTime "uniform(0s, 1s)"
config *.iotDevice[0].app[0].stopTime 20s
config *.iotDevice[0].app[0].messageLength 100B
config *.iotDevice[0].app[0].sendInterval 2s
config *.iotDevice[1].numApps 1
config *.iotDevice[1].app[0].typename UdpBasicApp
config *.iotDevice[1].app[0].destAddresses "\"baseStation\""
config *.iotDevice[1].app[0].destPort 12346
config *.iotDevice[1].app[0].startTime "uniform(0s, 1s)"
config *.iotDevice[1].app[0].stopTime 20s
config *.iotDevice[1].app[0].messageLength 200B
config *.iotDevice[1].app[0].sendInterval 3s
config *.iotDevice[2].numApps 1
config *.iotDevice[2].app[0].typename UdpBasicApp
config *.iotDevice[2].app[0].destAddresses "\"baseStation\""
config *.iotDevice[2].app[0].destPort 12347
config *.iotDevice[2].app[0].startTime "uniform(0s, 1s)"
config *.iotDevice[2].app[0].stopTime 20s
config *.iotDevice[2].app[0].messageLength 150B
config *.iotDevice[2].app[0].sendInterval 4s
config *.iotDevice[3].numApps 1
config *.iotDevice[3].app[0].typename UdpBasicApp
config *.iotDevice[3].app[0].destAddresses "\"satellite\""
config *.iotDevice[3].app[0].destPort 12348
config *.iotDevice[3].app[0].startTime "uniform(0s, 1s)"
config *.iotDevice[3].app[0].stopTime 20s
config *.iotDevice[3].app[0].messageLength 120B
config *.iotDevice[3].app[0].sendInterval 5s
config *.iotDevice[4].numApps 1
config *.iotDevice[4].app[0].typename UdpBasicApp
config *.iotDevice[4].app[0].destAddresses "\"baseStation\""
config *.iotDevice[4].app[0].destPort 12349
config *.iotDevice[4].app[0].startTime "uniform(0s, 1s)"
config *.iotDevice[4].app[0].stopTime 20s
config *.iotDevice[4].app[0].messageLength 180B
config *.iotDevice[4].app[0].sendInterval 6s
config *.configurator.autoassignAddresses true
config **.recordScalar false
config **.recordVector false
config *.iotDevice[*].app[*].packetSent true
config *.iotDevice[*].app[*].packetReceived true
config *.iotDevice[*].app[*].packetLoss true
config *.iotDevice[*].app[*].throughput true
config *.iotDevice[*].app[*].endToEndDelay:vector true
config *.iotDevice[*].app[*].throughput:vector true
config *.satellite.ethg[*].queueingTime true
config *.baseStation.ethg[*].queueingTime true
config **.app[*].recordScalar true
config **.app[*].recordVector true

vector 0 IoTCommunication.satellite.ethernet encapPk:vector(packetBytes) ETV
attr interpolationmode none
attr recordingmode vector(packetBytes)
attr source encapPk
attr title "packets encapsulated, packetBytes"
vector 1 IoTCommunication.satellite.ethernet decapPk:vector(packetBytes) ETV
attr interpolationmode none
attr recordingmode vector(packetBytes)
attr source decapPk
attr title "packets decapsulated, packetBytes"
vector 2 IoTCommunication.satellite.ethernet pauseSent:vector ETV
attr recordingmode vector
attr title "pause sent"
vector 3 IoTCommunication.satellite.lo[0].lo rcvdPkFromHl:vector(packetBytes) ETV
attr interpolationmode none
attr recordingmode vector(packetBytes)
attr source packetReceivedFromUpper
attr title "packets received from higher layer, packetBytes"
vector 4 IoTCommunication.satellite.lo[0].lo passedUpPk:vector(packetBytes) ETV
attr interpolationmode none
attr recordingmode vector(packetBytes)
attr source packetSentToUpper
attr title "packets passed to higher layer, packetBytes"
vector 5 IoTCommunication.satellite.lo[0] packetDropInterfaceDown:vector(packetBytes) ETV
attr interpolationmode none
attr recordingmode vector(packetBytes)
attr source packetDropReasonIsInterfaceDown(packetDropped)
attr title "packet drops: interface down, packetBytes"
vector 6 IoTCommunication.satellite.lo[0] packetDropNoCarrier:vector(packetBytes) ETV
attr interpolationmode none
attr recordingmode vector(packetBytes)
attr source packetDropReasonIsNoCarrier(packetDropped)
attr title "packet drops: no carrier, packetBytes"
vector 7 IoTCommunication.satellite.eth[0].queue queueLength:vector ETV
attr autoWarmupFilter false
attr interpolationmode sample-hold
attr recordingmode vector
attr source "warmup(atomic(constant0(packetPushEnded) + count(packetPushStarted) - count(packetPulled) - count(packetRemoved) - count(packetDropped)))"
attr title "queue length"
attr unit pk
vector 8 IoTCommunication.satellite.eth[0].queue queueBitLength:vector ETV
attr autoWarmupFilter false
attr interpolationmode sample-hold
attr recordingmode vector
attr source "warmup(atomic(constant0(packetPushEnded) + sum(packetLength(packetPushStarted)) - sum(packetLength(packetPulled)) - sum(packetLength(packetRemoved)) - sum(packetLength(packetDropped))))"
attr title "queue bit length"
attr unit b
vector 9 IoTCommunication.satellite.eth[0].queue queueingTime:vector ETV
attr interpolationmode none
attr recordingmode vector
attr source queueingTime(packetPulled)
attr title "queueing times"
attr unit s
vector 10 IoTCommunication.satellite.eth[0].queue incomingPacketLengths:vector ETV
attr interpolationmode none
attr recordingmode vector
attr source packetLength(packetPushStarted)
attr title "incoming packet lengths"
attr unit b
vector 11 IoTCommunication.satellite.eth[0].queue incomingDataRate:vector ETV
attr interpolationmode linear
attr recordingmode vector
attr source throughput(packetPushStarted)
attr title "incoming datarate"
attr unit bps
vector 12 IoTCommunication.satellite.eth[0].queue outgoingPacketLengths:vector ETV
attr interpolationmode none
attr recordingmode vector
attr source packetLength(packetPulled)
attr title "outgoing packet lengths"
attr unit b
vector 13 IoTCommunication.satellite.eth[0].queue outgoingDataRate:vector ETV
attr interpolationmode linear
attr recordingmode vector
attr source throughput(packetPulled)
attr title "outgoing datarate"
attr unit bps
vector 14 IoTCommunication.satellite.eth[0].queue droppedPacketLengthsQueueOverflow:vector ETV
attr interpolationmode none
attr recordingmode vector
attr source packetLength(packetDropReasonIsQueueOverflow(packetDropped))
attr title "dropped packet lengths: queue overflow"
attr unit b
vector 15 IoTCommunication.satellite.eth[0].queue flowQueueingTime:vector ETV
attr interpolationmode none
attr recordingmode vector
attr source queueingTime(demuxFlow(packetPulled))
attr title "flow queueing times"
attr unit s
vector 16 IoTCommunication.satellite.eth[0].queue flowIncomingDataRate:vector ETV
attr interpolationmode linear
attr recordingmode vector
attr source throughput(flowPacketLength(demuxFlow(packetPushStarted)))
attr title "flow specific incoming data rate"
attr unit bps
vector 17 IoTCommunication.satellite.eth[0].queue flowOutgoingDataRate:vector ETV
attr interpolationmode linear
attr recordingmode vector
attr source throughput(flowPacketLength(demuxFlow(packetPulled)))
attr title "flow specific outgoing data rate"
attr unit bps
vector 18 IoTCommunication.satellite.eth[0].mac txPk:vector(packetBytes) ETV
attr interpolationmode none
attr recordingmode vector(packetBytes)
attr source packetSentToLower
attr title "packets transmitted, packetBytes"
vector 19 IoTCommunication.satellite.eth[0].mac rxPkOk:vector(packetBytes) ETV
attr interpolationmode none
attr recordingmode vector(packetBytes)
attr source rxPkOk
attr title "packets received OK, packetBytes"
vector 20 IoTCommunication.satellite.eth[0].mac passedUpPk:vector(packetBytes) ETV
attr interpolationmode none
attr recordingmode vector(packetBytes)
attr source packetSentToUpper
attr title "packets passed to higher layer, packetBytes"
vector 21 IoTCommunication.satellite.eth[0].mac txPausePkUnits:vector ETV
attr interpolationmode none
attr recordingmode vector
attr title "pause units sent"
vector 22 IoTCommunication.satellite.eth[0].mac rxPausePkUnits:vector ETV
attr interpolationmode none
attr recordingmode vector
attr title "pause units received"
vector 23 IoTCommunication.satellite.eth[0].mac packetReceivedFromUpper:vector(packetBytes) ETV
attr interpolationmode none
attr recordingmode vector(packetBytes)
attr source packetReceivedFromUpper
attr title "packet bytes from higher layer, packetBytes"
vector 24 IoTCommunication.satellite.eth[0].mac packetDropIncorrectlyReceived:vector(packetBytes) ETV
attr interpolationmode none
attr recordingmode vector(packetBytes)
attr source packetDropReasonIsIncorrectlyReceived(packetDropped)
attr title "packet drop: incorrectly received, packetBytes"
vector 25 IoTCommunication.satellite.eth[0].mac packetDropInterfaceDown:vector(packetBytes) ETV
attr interpolationmode none
attr recordingmode vector(packetBytes)
attr source packetDropReasonIsInterfaceDown(packetDropped)
attr title "packet drop: interface down, packetBytes"
vector 26 IoTCommunication.satellite.eth[0].mac packetDropNotAddressedToUs:vector(packetBytes) ETV
attr interpolationmode none
attr recordingmode vector(packetBytes)
attr source packetDropReasonIsNotAddressedToUs(packetDropped)
attr title "packet drop: not addressed to us, packetBytes"
vector 27 IoTCommunication.satellite.eth[0] packetDropInterfaceDown:vector(packetBytes) ETV
attr interpolationmode none
attr recordingmode vector(packetBytes)
attr source packetDropReasonIsInterfaceDown(packetDropped)
attr title "packet drops: interface down, packetBytes"
vector 28 IoTCommunication.satellite.eth[0] packetDropNoCarrier:vector(packetBytes) ETV
attr interpolationmode none
attr recordingmode vector(packetBytes)
attr source packetDropReasonIsNoCarrier(packetDropped)
attr title "packet drops: no carrier, packetBytes"
vector 29 IoTCommunication.satellite.ipv4.ip packetDropAddressResolutionFailed:vector(packetBytes) ETV
attr interpolationmode none
attr recordingmode vector(packetBytes)
attr source packetDropReasonIsAddressResolutionFailed(packetDropped)
attr title "packet drop: address resolution failed, packetBytes"
vector 30 IoTCommunication.satellite.ipv4.ip packetDropHopLimitReached:vector(packetBytes) ETV
attr interpolationmode none
attr recordingmode vector(packetBytes)
attr source packetDropReasonIsHopLimitReached(packetDropped)
attr title "packet drop: hop limit reached, packetBytes"
vector 31 IoTCommunication.satellite.ipv4.ip packetDropForwardingDisabled:vector(packetBytes) ETV
attr interpolationmode none
attr recordingmode vector(packetBytes)
attr source packetDropReasonIsForwardingDisabled(packetDropped)
attr title "packet drop: forwarding disabled, packetBytes"
vector 32 IoTCommunication.satellite.ipv4.ip packetDropNoInterfaceFound:vector(packetBytes) ETV
attr interpolationmode none
attr recordingmode vector(packetBytes)
attr source packetDropReasonIsNoInterfaceFound(packetDropped)
attr title "packet drop: no interface found, packetBytes"
vector 33 IoTCommunication.satellite.ipv4.ip packetDropNoRouteFound:vector(packetBytes) ETV
attr interpolationmode none
attr recordingmode vector(packetBytes)
attr source packetDropReasonIsNoRouteFound(packetDropped)
attr title "packet drop: no route found, packetBytes"
vector 34 IoTCommunication.satellite.ipv4.ip packetDropUndefined:vector(packetBytes) ETV
attr interpolationmode none
attr recordingmode vector(packetBytes)
attr source packetDropReasonIsUndefined(packetDropped)
attr title "packet drop: undefined, packetBytes"
vector 35 IoTCommunication.satellite.ipv4.arp arpRequestSent:vector(packetBytes) ETV
attr recordingmode vector(packetBytes)
attr source arpRequestSent
attr title "ARP request sent, packetBytes"
vector 36 IoTCommunication.satellite.ipv4.arp arpReplySent:vector(packetBytes) ETV
attr recordingmode vector(packetBytes)
attr source arpReplySent
attr title "ARP replies sent, packetBytes"
vector 37 IoTCommunication.baseStation.ethernet encapPk:vector(packetBytes) ETV
attr interpolationmode none
attr recordingmode vector(packetBytes)
attr source encapPk
attr title "packets encapsulated, packetBytes"
vector 38 IoTCommunication.baseStation.ethernet decapPk:vector(packetBytes) ETV
attr interpolationmode none
attr recordingmode vector(packetBytes)
attr source decapPk
attr title "packets decapsulated, packetBytes"
vector 39 IoTCommunication.baseStation.ethernet pauseSent:vector ETV
attr recordingmode vector
attr title "pause sent"
vector 40 IoTCommunication.baseStation.lo[0].lo rcvdPkFromHl:vector(packetBytes) ETV
attr interpolationmode none
attr recordingmode vector(packetBytes)
attr source packetReceivedFromUpper
attr title "packets received from higher layer, packetBytes"
vector 41 IoTCommunication.baseStation.lo[0].lo passedUpPk:vector(packetBytes) ETV
attr interpolationmode none
attr recordingmode vector(packetBytes)
attr source packetSentToUpper
attr title "packets passed to higher layer, packetBytes"
vector 42 IoTCommunication.baseStation.lo[0] packetDropInterfaceDown:vector(packetBytes) ETV
attr interpolationmode none
attr recordingmode vector(packetBytes)
attr source packetDropReasonIsInterfaceDown(packetDropped)
attr title "packet drops: interface down, packetBytes"
vector 43 IoTCommunication.baseStation.lo[0] packetDropNoCarrier:vector(packetBytes) ETV
attr interpolationmode none
attr recordingmode vector(packetBytes)
attr source packetDropReasonIsNoCarrier(packetDropped)
attr title "packet drops: no carrier, packetBytes"
vector 44 IoTCommunication.baseStation.eth[0].queue queueLength:vector ETV
attr autoWarmupFilter false
attr interpolationmode sample-hold
attr recordingmode vector
attr source "warmup(atomic(constant0(packetPushEnded) + count(packetPushStarted) - count(packetPulled) - count(packetRemoved) - count(packetDropped)))"
attr title "queue length"
attr unit pk
vector 45 IoTCommunication.baseStation.eth[0].queue queueBitLength:vector ETV
attr autoWarmupFilter false
attr interpolationmode sample-hold
attr recordingmode vector
attr source "warmup(atomic(constant0(packetPushEnded) + sum(packetLength(packetPushStarted)) - sum(packetLength(packetPulled)) - sum(packetLength(packetRemoved)) - sum(packetLength(packetDropped))))"
attr title "queue bit length"
attr unit b
vector 46 IoTCommunication.baseStation.eth[0].queue queueingTime:vector ETV
attr interpolationmode none
attr recordingmode vector
attr source queueingTime(packetPulled)
attr title "queueing times"
attr unit s
vector 47 IoTCommunication.baseStation.eth[0].queue incomingPacketLengths:vector ETV
attr interpolationmode none
attr recordingmode vector
attr source packetLength(packetPushStarted)
attr title "incoming packet lengths"
attr unit b
vector 48 IoTCommunication.baseStation.eth[0].queue incomingDataRate:vector ETV
attr interpolationmode linear
attr recordingmode vector
attr source throughput(packetPushStarted)
attr title "incoming datarate"
attr unit bps
vector 49 IoTCommunication.baseStation.eth[0].queue outgoingPacketLengths:vector ETV
attr interpolationmode none
attr recordingmode vector
attr source packetLength(packetPulled)
attr title "outgoing packet lengths"
attr unit b
vector 50 IoTCommunication.baseStation.eth[0].queue outgoingDataRate:vector ETV
attr interpolationmode linear
attr recordingmode vector
attr source throughput(packetPulled)
attr title "outgoing datarate"
attr unit bps
vector 51 IoTCommunication.baseStation.eth[0].queue droppedPacketLengthsQueueOverflow:vector ETV
attr interpolationmode none
attr recordingmode vector
attr source packetLength(packetDropReasonIsQueueOverflow(packetDropped))
attr title "dropped packet lengths: queue overflow"
attr unit b
vector 52 IoTCommunication.baseStation.eth[0].queue flowQueueingTime:vector ETV
attr interpolationmode none
attr recordingmode vector
attr source queueingTime(demuxFlow(packetPulled))
attr title "flow queueing times"
attr unit s
vector 53 IoTCommunication.baseStation.eth[0].queue flowIncomingDataRate:vector ETV
attr interpolationmode linear
attr recordingmode vector
attr source throughput(flowPacketLength(demuxFlow(packetPushStarted)))
attr title "flow specific incoming data rate"
attr unit bps
vector 54 IoTCommunication.baseStation.eth[0].queue flowOutgoingDataRate:vector ETV
attr interpolationmode linear
attr recordingmode vector
attr source throughput(flowPacketLength(demuxFlow(packetPulled)))
attr title "flow specific outgoing data rate"
attr unit bps
vector 55 IoTCommunication.baseStation.eth[0].mac txPk:vector(packetBytes) ETV
attr interpolationmode none
attr recordingmode vector(packetBytes)
attr source packetSentToLower
attr title "packets transmitted, packetBytes"
vector 56 IoTCommunication.baseStation.eth[0].mac rxPkOk:vector(packetBytes) ETV
attr interpolationmode none
attr recordingmode vector(packetBytes)
attr source rxPkOk
attr title "packets received OK, packetBytes"
vector 57 IoTCommunication.baseStation.eth[0].mac passedUpPk:vector(packetBytes) ETV
attr interpolationmode none
attr recordingmode vector(packetBytes)
attr source packetSentToUpper
attr title "packets passed to higher layer, packetBytes"
vector 58 IoTCommunication.baseStation.eth[0].mac txPausePkUnits:vector ETV
attr interpolationmode none
attr recordingmode vector
attr title "pause units sent"
vector 59 IoTCommunication.baseStation.eth[0].mac rxPausePkUnits:vector ETV
attr interpolationmode none
attr recordingmode vector
attr title "pause units received"
vector 60 IoTCommunication.baseStation.eth[0].mac packetReceivedFromUpper:vector(packetBytes) ETV
attr interpolationmode none
attr recordingmode vector(packetBytes)
attr source packetReceivedFromUpper
attr title "packet bytes from higher layer, packetBytes"
vector 61 IoTCommunication.baseStation.eth[0].mac packetDropIncorrectlyReceived:vector(packetBytes) ETV
attr interpolationmode none
attr recordingmode vector(packetBytes)
attr source packetDropReasonIsIncorrectlyReceived(packetDropped)
attr title "packet drop: incorrectly received, packetBytes"
vector 62 IoTCommunication.baseStation.eth[0].mac packetDropInterfaceDown:vector(packetBytes) ETV
attr interpolationmode none
attr recordingmode vector(packetBytes)
attr source packetDropReasonIsInterfaceDown(packetDropped)
attr title "packet drop: interface down, packetBytes"
vector 63 IoTCommunication.baseStation.eth[0].mac packetDropNotAddressedToUs:vector(packetBytes) ETV
attr interpolationmode none
attr recordingmode vector(packetBytes)
attr source packetDropReasonIsNotAddressedToUs(packetDropped)
attr title "packet drop: not addressed to us, packetBytes"
vector 64 IoTCommunication.baseStation.eth[0] packetDropInterfaceDown:vector(packetBytes) ETV
attr interpolationmode none
attr recordingmode vector(packetBytes)
attr source packetDropReasonIsInterfaceDown(packetDropped)
attr title "packet drops: interface down, packetBytes"
vector 65 IoTCommunication.baseStation.eth[0] packetDropNoCarrier:vector(packetBytes) ETV
attr interpolationmode none
attr recordingmode vector(packetBytes)
attr source packetDropReasonIsNoCarrier(packetDropped)
attr title "packet drops: no carrier, packetBytes"
vector 66 IoTCommunication.baseStation.eth[1].queue queueLength:vector ETV
attr autoWarmupFilter false
attr interpolationmode sample-hold
attr recordingmode vector
attr source "warmup(atomic(constant0(packetPushEnded) + count(packetPushStarted) - count(packetPulled) - count(packetRemoved) - count(packetDropped)))"
attr title "queue length"
attr unit pk
vector 67 IoTCommunication.baseStation.eth[1].queue queueBitLength:vector ETV
attr autoWarmupFilter false
attr interpolationmode sample-hold
attr recordingmode vector
attr source "warmup(atomic(constant0(packetPushEnded) + sum(packetLength(packetPushStarted)) - sum(packetLength(packetPulled)) - sum(packetLength(packetRemoved)) - sum(packetLength(packetDropped))))"
attr title "queue bit length"
attr unit b
vector 68 IoTCommunication.baseStation.eth[1].queue queueingTime:vector ETV
attr interpolationmode none
attr recordingmode vector
attr source queueingTime(packetPulled)
attr title "queueing times"
attr unit s
vector 69 IoTCommunication.baseStation.eth[1].queue incomingPacketLengths:vector ETV
attr interpolationmode none
attr recordingmode vector
attr source packetLength(packetPushStarted)
attr title "incoming packet lengths"
attr unit b
vector 70 IoTCommunication.baseStation.eth[1].queue incomingDataRate:vector ETV
attr interpolationmode linear
attr recordingmode vector
attr source throughput(packetPushStarted)
attr title "incoming datarate"
attr unit bps
vector 71 IoTCommunication.baseStation.eth[1].queue outgoingPacketLengths:vector ETV
attr interpolationmode none
attr recordingmode vector
attr source packetLength(packetPulled)
attr title "outgoing packet lengths"
attr unit b
vector 72 IoTCommunication.baseStation.eth[1].queue outgoingDataRate:vector ETV
attr interpolationmode linear
attr recordingmode vector
attr source throughput(packetPulled)
attr title "outgoing datarate"
attr unit bps
vector 73 IoTCommunication.baseStation.eth[1].queue droppedPacketLengthsQueueOverflow:vector ETV
attr interpolationmode none
attr recordingmode vector
attr source packetLength(packetDropReasonIsQueueOverflow(packetDropped))
attr title "dropped packet lengths: queue overflow"
attr unit b
vector 74 IoTCommunication.baseStation.eth[1].queue flowQueueingTime:vector ETV
attr interpolationmode none
attr recordingmode vector
attr source queueingTime(demuxFlow(packetPulled))
attr title "flow queueing times"
attr unit s
vector 75 IoTCommunication.baseStation.eth[1].queue flowIncomingDataRate:vector ETV
attr interpolationmode linear
attr recordingmode vector
attr source throughput(flowPacketLength(demuxFlow(packetPushStarted)))
attr title "flow specific incoming data rate"
attr unit bps
vector 76 IoTCommunication.baseStation.eth[1].queue flowOutgoingDataRate:vector ETV
attr interpolationmode linear
attr recordingmode vector
attr source throughput(flowPacketLength(demuxFlow(packetPulled)))
attr title "flow specific outgoing data rate"
attr unit bps
vector 77 IoTCommunication.baseStation.eth[1].mac txPk:vector(packetBytes) ETV
attr interpolationmode none
attr recordingmode vector(packetBytes)
attr source packetSentToLower
attr title "packets transmitted, packetBytes"
vector 78 IoTCommunication.baseStation.eth[1].mac rxPkOk:vector(packetBytes) ETV
attr interpolationmode none
attr recordingmode vector(packetBytes)
attr source rxPkOk
attr title "packets received OK, packetBytes"
vector 79 IoTCommunication.baseStation.eth[1].mac passedUpPk:vector(packetBytes) ETV
attr interpolationmode none
attr recordingmode vector(packetBytes)
attr source packetSentToUpper
attr title "packets passed to higher layer, packetBytes"
vector 80 IoTCommunication.baseStation.eth[1].mac txPausePkUnits:vector ETV
attr interpolationmode none
attr recordingmode vector
attr title "pause units sent"
vector 81 IoTCommunication.baseStation.eth[1].mac rxPausePkUnits:vector ETV
attr interpolationmode none
attr recordingmode vector
attr title "pause units received"
vector 82 IoTCommunication.baseStation.eth[1].mac packetReceivedFromUpper:vector(packetBytes) ETV
attr interpolationmode none
attr recordingmode vector(packetBytes)
attr source packetReceivedFromUpper
attr title "packet bytes from higher layer, packetBytes"
vector 83 IoTCommunication.baseStation.eth[1].mac packetDropIncorrectlyReceived:vector(packetBytes) ETV
attr interpolationmode none
attr recordingmode vector(packetBytes)
attr source packetDropReasonIsIncorrectlyReceived(packetDropped)
attr title "packet drop: incorrectly received, packetBytes"
vector 84 IoTCommunication.baseStation.eth[1].mac packetDropInterfaceDown:vector(packetBytes) ETV
attr interpolationmode none
attr recordingmode vector(packetBytes)
attr source packetDropReasonIsInterfaceDown(packetDropped)
attr title "packet drop: interface down, packetBytes"
vector 85 IoTCommunication.baseStation.eth[1].mac packetDropNotAddressedToUs:vector(packetBytes) ETV
attr interpolationmode none
attr recordingmode vector(packetBytes)
attr source packetDropReasonIsNotAddressedToUs(packetDropped)
attr title "packet drop: not addressed to us, packetBytes"
vector 86 IoTCommunication.baseStation.eth[1] packetDropInterfaceDown:vector(packetBytes) ETV
attr interpolationmode none
attr recordingmode vector(packetBytes)
attr source packetDropReasonIsInterfaceDown(packetDropped)
attr title "packet drops: interface down, packetBytes"
vector 87 IoTCommunication.baseStation.eth[1] packetDropNoCarrier:vector(packetBytes) ETV
attr interpolationmode none
attr recordingmode vector(packetBytes)
attr source packetDropReasonIsNoCarrier(packetDropped)
attr title "packet drops: no carrier, packetBytes"
vector 88 IoTCommunication.baseStation.eth[2].queue queueLength:vector ETV
attr autoWarmupFilter false
attr interpolationmode sample-hold
attr recordingmode vector
attr source "warmup(atomic(constant0(packetPushEnded) + count(packetPushStarted) - count(packetPulled) - count(packetRemoved) - count(packetDropped)))"
attr title "queue length"
attr unit pk
vector 89 IoTCommunication.baseStation.eth[2].queue queueBitLength:vector ETV
attr autoWarmupFilter false
attr interpolationmode sample-hold
attr recordingmode vector
attr source "warmup(atomic(constant0(packetPushEnded) + sum(packetLength(packetPushStarted)) - sum(packetLength(packetPulled)) - sum(packetLength(packetRemoved)) - sum(packetLength(packetDropped))))"
attr title "queue bit length"
attr unit b
vector 90 IoTCommunication.baseStation.eth[2].queue queueingTime:vector ETV
attr interpolationmode none
attr recordingmode vector
attr source queueingTime(packetPulled)
attr title "queueing times"
attr unit s
vector 91 IoTCommunication.baseStation.eth[2].queue incomingPacketLengths:vector ETV
attr interpolationmode none
attr recordingmode vector
attr source packetLength(packetPushStarted)
attr title "incoming packet lengths"
attr unit b
vector 92 IoTCommunication.baseStation.eth[2].queue incomingDataRate:vector ETV
attr interpolationmode linear
attr recordingmode vector
attr source throughput(packetPushStarted)
attr title "incoming datarate"
attr unit bps
vector 93 IoTCommunication.baseStation.eth[2].queue outgoingPacketLengths:vector ETV
attr interpolationmode none
attr recordingmode vector
attr source packetLength(packetPulled)
attr title "outgoing packet lengths"
attr unit b
vector 94 IoTCommunication.baseStation.eth[2].queue outgoingDataRate:vector ETV
attr interpolationmode linear
attr recordingmode vector
attr source throughput(packetPulled)
attr title "outgoing datarate"
attr unit bps
vector 95 IoTCommunication.baseStation.eth[2].queue droppedPacketLengthsQueueOverflow:vector ETV
attr interpolationmode none
attr recordingmode vector
attr source packetLength(packetDropReasonIsQueueOverflow(packetDropped))
attr title "dropped packet lengths: queue overflow"
attr unit b
vector 96 IoTCommunication.baseStation.eth[2].queue flowQueueingTime:vector ETV
attr interpolationmode none
attr recordingmode vector
attr source queueingTime(demuxFlow(packetPulled))
attr title "flow queueing times"
attr unit s
vector 97 IoTCommunication.baseStation.eth[2].queue flowIncomingDataRate:vector ETV
attr interpolationmode linear
attr recordingmode vector
attr source throughput(flowPacketLength(demuxFlow(packetPushStarted)))
attr title "flow specific incoming data rate"
attr unit bps
vector 98 IoTCommunication.baseStation.eth[2].queue flowOutgoingDataRate:vector ETV
attr interpolationmode linear
attr recordingmode vector
attr source throughput(flowPacketLength(demuxFlow(packetPulled)))
attr title "flow specific outgoing data rate"
attr unit bps
vector 99 IoTCommunication.baseStation.eth[2].mac txPk:vector(packetBytes) ETV
attr interpolationmode none
attr recordingmode vector(packetBytes)
attr source packetSentToLower
attr title "packets transmitted, packetBytes"
vector 100 IoTCommunication.baseStation.eth[2].mac rxPkOk:vector(packetBytes) ETV
attr interpolationmode none
attr recordingmode vector(packetBytes)
attr source rxPkOk
attr title "packets received OK, packetBytes"
vector 101 IoTCommunication.baseStation.eth[2].mac passedUpPk:vector(packetBytes) ETV
attr interpolationmode none
attr recordingmode vector(packetBytes)
attr source packetSentToUpper
attr title "packets passed to higher layer, packetBytes"
vector 102 IoTCommunication.baseStation.eth[2].mac txPausePkUnits:vector ETV
attr interpolationmode none
attr recordingmode vector
attr title "pause units sent"
vector 103 IoTCommunication.baseStation.eth[2].mac rxPausePkUnits:vector ETV
attr interpolationmode none
attr recordingmode vector
attr title "pause units received"
vector 104 IoTCommunication.baseStation.eth[2].mac packetReceivedFromUpper:vector(packetBytes) ETV
attr interpolationmode none
attr recordingmode vector(packetBytes)
attr source packetReceivedFromUpper
attr title "packet bytes from higher layer, packetBytes"
vector 105 IoTCommunication.baseStation.eth[2].mac packetDropIncorrectlyReceived:vector(packetBytes) ETV
attr interpolationmode none
attr recordingmode vector(packetBytes)
attr source packetDropReasonIsIncorrectlyReceived(packetDropped)
attr title "packet drop: incorrectly received, packetBytes"
vector 106 IoTCommunication.baseStation.eth[2].mac packetDropInterfaceDown:vector(packetBytes) ETV
attr interpolationmode none
attr recordingmode vector(packetBytes)
attr source packetDropReasonIsInterfaceDown(packetDropped)
attr title "packet drop: interface down, packetBytes"
vector 107 IoTCommunication.baseStation.eth[2].mac packetDropNotAddressedToUs:vector(packetBytes) ETV
attr interpolationmode none
attr recordingmode vector(packetBytes)
attr source packetDropReasonIsNotAddressedToUs(packetDropped)
attr title "packet drop: not addressed to us, packetBytes"
vector 108 IoTCommunication.baseStation.eth[2] packetDropInterfaceDown:vector(packetBytes) ETV
attr interpolationmode none
attr recordingmode vector(packetBytes)
attr source packetDropReasonIsInterfaceDown(packetDropped)
attr title "packet drops: interface down, packetBytes"
vector 109 IoTCommunication.baseStation.eth[2] packetDropNoCarrier:vector(packetBytes) ETV
attr interpolationmode none
attr recordingmode vector(packetBytes)
attr source packetDropReasonIsNoCarrier(packetDropped)
attr title "packet drops: no carrier, packetBytes"
vector 110 IoTCommunication.baseStation.eth[3].queue queueLength:vector ETV
attr autoWarmupFilter false
attr interpolationmode sample-hold
attr recordingmode vector
attr source "warmup(atomic(constant0(packetPushEnded) + count(packetPushStarted) - count(packetPulled) - count(packetRemoved) - count(packetDropped)))"
attr title "queue length"
attr unit pk
vector 111 IoTCommunication.baseStation.eth[3].queue queueBitLength:vector ETV
attr autoWarmupFilter false
attr interpolationmode sample-hold
attr recordingmode vector
attr source "warmup(atomic(constant0(packetPushEnded) + sum(packetLength(packetPushStarted)) - sum(packetLength(packetPulled)) - sum(packetLength(packetRemoved)) - sum(packetLength(packetDropped))))"
attr title "queue bit length"
attr unit b
vector 112 IoTCommunication.baseStation.eth[3].queue queueingTime:vector ETV
attr interpolationmode none
attr recordingmode vector
attr source queueingTime(packetPulled)
attr title "queueing times"
attr unit s
vector 113 IoTCommunication.baseStation.eth[3].queue incomingPacketLengths:vector ETV
attr interpolationmode none
attr recordingmode vector
attr source packetLength(packetPushStarted)
attr title "incoming packet lengths"
attr unit b
vector 114 IoTCommunication.baseStation.eth[3].queue incomingDataRate:vector ETV
attr interpolationmode linear
attr recordingmode vector
attr source throughput(packetPushStarted)
attr title "incoming datarate"
attr unit bps
vector 115 IoTCommunication.baseStation.eth[3].queue outgoingPacketLengths:vector ETV
attr interpolationmode none
attr recordingmode vector
attr source packetLength(packetPulled)
attr title "outgoing packet lengths"
attr unit b
vector 116 IoTCommunication.baseStation.eth[3].queue outgoingDataRate:vector ETV
attr interpolationmode linear
attr recordingmode vector
attr source throughput(packetPulled)
attr title "outgoing datarate"
attr unit bps
vector 117 IoTCommunication.baseStation.eth[3].queue droppedPacketLengthsQueueOverflow:vector ETV
attr interpolationmode none
attr recordingmode vector
attr source packetLength(packetDropReasonIsQueueOverflow(packetDropped))
attr title "dropped packet lengths: queue overflow"
attr unit b
vector 118 IoTCommunication.baseStation.eth[3].queue flowQueueingTime:vector ETV
attr interpolationmode none
attr recordingmode vector
attr source queueingTime(demuxFlow(packetPulled))
attr title "flow queueing times"
attr unit s
vector 119 IoTCommunication.baseStation.eth[3].queue flowIncomingDataRate:vector ETV
attr interpolationmode linear
attr recordingmode vector
attr source throughput(flowPacketLength(demuxFlow(packetPushStarted)))
attr title "flow specific incoming data rate"
attr unit bps
vector 120 IoTCommunication.baseStation.eth[3].queue flowOutgoingDataRate:vector ETV
attr interpolationmode linear
attr recordingmode vector
attr source throughput(flowPacketLength(demuxFlow(packetPulled)))
attr title "flow specific outgoing data rate"
attr unit bps
vector 121 IoTCommunication.baseStation.eth[3].mac txPk:vector(packetBytes) ETV
attr interpolationmode none
attr recordingmode vector(packetBytes)
attr source packetSentToLower
attr title "packets transmitted, packetBytes"
vector 122 IoTCommunication.baseStation.eth[3].mac rxPkOk:vector(packetBytes) ETV
attr interpolationmode none
attr recordingmode vector(packetBytes)
attr source rxPkOk
attr title "packets received OK, packetBytes"
vector 123 IoTCommunication.baseStation.eth[3].mac passedUpPk:vector(packetBytes) ETV
attr interpolationmode none
attr recordingmode vector(packetBytes)
attr source packetSentToUpper
attr title "packets passed to higher layer, packetBytes"
vector 124 IoTCommunication.baseStation.eth[3].mac txPausePkUnits:vector ETV
attr interpolationmode none
attr recordingmode vector
attr title "pause units sent"
vector 125 IoTCommunication.baseStation.eth[3].mac rxPausePkUnits:vector ETV
attr interpolationmode none
attr recordingmode vector
attr title "pause units received"
vector 126 IoTCommunication.baseStation.eth[3].mac packetReceivedFromUpper:vector(packetBytes) ETV
attr interpolationmode none
attr recordingmode vector(packetBytes)
attr source packetReceivedFromUpper
attr title "packet bytes from higher layer, packetBytes"
vector 127 IoTCommunication.baseStation.eth[3].mac packetDropIncorrectlyReceived:vector(packetBytes) ETV
attr interpolationmode none
attr recordingmode vector(packetBytes)
attr source packetDropReasonIsIncorrectlyReceived(packetDropped)
attr title "packet drop: incorrectly received, packetBytes"
vector 128 IoTCommunication.baseStation.eth[3].mac packetDropInterfaceDown:vector(packetBytes) ETV
attr interpolationmode none
attr recordingmode vector(packetBytes)
attr source packetDropReasonIsInterfaceDown(packetDropped)
attr title "packet drop: interface down, packetBytes"
vector 129 IoTCommunication.baseStation.eth[3].mac packetDropNotAddressedToUs:vector(packetBytes) ETV
attr interpolationmode none
attr recordingmode vector(packetBytes)
attr source packetDropReasonIsNotAddressedToUs(packetDropped)
attr title "packet drop: not addressed to us, packetBytes"
vector 130 IoTCommunication.baseStation.eth[3] packetDropInterfaceDown:vector(packetBytes) ETV
attr interpolationmode none
attr recordingmode vector(packetBytes)
attr source packetDropReasonIsInterfaceDown(packetDropped)
attr title "packet drops: interface down, packetBytes"
vector 131 IoTCommunication.baseStation.eth[3] packetDropNoCarrier:vector(packetBytes) ETV
attr interpolationmode none
attr recordingmode vector(packetBytes)
attr source packetDropReasonIsNoCarrier(packetDropped)
attr title "packet drops: no carrier, packetBytes"
vector 132 IoTCommunication.baseStation.eth[4].queue queueLength:vector ETV
attr autoWarmupFilter false
attr interpolationmode sample-hold
attr recordingmode vector
attr source "warmup(atomic(constant0(packetPushEnded) + count(packetPushStarted) - count(packetPulled) - count(packetRemoved) - count(packetDropped)))"
attr title "queue length"
attr unit pk
vector 133 IoTCommunication.baseStation.eth[4].queue queueBitLength:vector ETV
attr autoWarmupFilter false
attr interpolationmode sample-hold
attr recordingmode vector
attr source "warmup(atomic(constant0(packetPushEnded) + sum(packetLength(packetPushStarted)) - sum(packetLength(packetPulled)) - sum(packetLength(packetRemoved)) - sum(packetLength(packetDropped))))"
attr title "queue bit length"
attr unit b
vector 134 IoTCommunication.baseStation.eth[4].queue queueingTime:vector ETV
attr interpolationmode none
attr recordingmode vector
attr source queueingTime(packetPulled)
attr title "queueing times"
attr unit s
vector 135 IoTCommunication.baseStation.eth[4].queue incomingPacketLengths:vector ETV
attr interpolationmode none
attr recordingmode vector
attr source packetLength(packetPushStarted)
attr title "incoming packet lengths"
attr unit b
vector 136 IoTCommunication.baseStation.eth[4].queue incomingDataRate:vector ETV
attr interpolationmode linear
attr recordingmode vector
attr source throughput(packetPushStarted)
attr title "incoming datarate"
attr unit bps
vector 137 IoTCommunication.baseStation.eth[4].queue outgoingPacketLengths:vector ETV
attr interpolationmode none
attr recordingmode vector
attr source packetLength(packetPulled)
attr title "outgoing packet lengths"
attr unit b
vector 138 IoTCommunication.baseStation.eth[4].queue outgoingDataRate:vector ETV
attr interpolationmode linear
attr recordingmode vector
attr source throughput(packetPulled)
attr title "outgoing datarate"
attr unit bps
vector 139 IoTCommunication.baseStation.eth[4].queue droppedPacketLengthsQueueOverflow:vector ETV
attr interpolationmode none
attr recordingmode vector
attr source packetLength(packetDropReasonIsQueueOverflow(packetDropped))
attr title "dropped packet lengths: queue overflow"
attr unit b
vector 140 IoTCommunication.baseStation.eth[4].queue flowQueueingTime:vector ETV
attr interpolationmode none
attr recordingmode vector
attr source queueingTime(demuxFlow(packetPulled))
attr title "flow queueing times"
attr unit s
vector 141 IoTCommunication.baseStation.eth[4].queue flowIncomingDataRate:vector ETV
attr interpolationmode linear
attr recordingmode vector
attr source throughput(flowPacketLength(demuxFlow(packetPushStarted)))
attr title "flow specific incoming data rate"
attr unit bps
vector 142 IoTCommunication.baseStation.eth[4].queue flowOutgoingDataRate:vector ETV
attr interpolationmode linear
attr recordingmode vector
attr source throughput(flowPacketLength(demuxFlow(packetPulled)))
attr title "flow specific outgoing data rate"
attr unit bps
vector 143 IoTCommunication.baseStation.eth[4].mac txPk:vector(packetBytes) ETV
attr interpolationmode none
attr recordingmode vector(packetBytes)
attr source packetSentToLower
attr title "packets transmitted, packetBytes"
vector 144 IoTCommunication.baseStation.eth[4].mac rxPkOk:vector(packetBytes) ETV
attr interpolationmode none
attr recordingmode vector(packetBytes)
attr source rxPkOk
attr title "packets received OK, packetBytes"
vector 145 IoTCommunication.baseStation.eth[4].mac passedUpPk:vector(packetBytes) ETV
attr interpolationmode none
attr recordingmode vector(packetBytes)
attr source packetSentToUpper
attr title "packets passed to higher layer, packetBytes"
vector 146 IoTCommunication.baseStation.eth[4].mac txPausePkUnits:vector ETV
attr interpolationmode none
attr recordingmode vector
attr title "pause units sent"
vector 147 IoTCommunication.baseStation.eth[4].mac rxPausePkUnits:vector ETV
attr interpolationmode none
attr recordingmode vector
attr title "pause units received"
vector 148 IoTCommunication.baseStation.eth[4].mac packetReceivedFromUpper:vector(packetBytes) ETV
attr interpolationmode none
attr recordingmode vector(packetBytes)
attr source packetReceivedFromUpper
attr title "packet bytes from higher layer, packetBytes"
vector 149 IoTCommunication.baseStation.eth[4].mac packetDropIncorrectlyReceived:vector(packetBytes) ETV
attr interpolationmode none
attr recordingmode vector(packetBytes)
attr source packetDropReasonIsIncorrectlyReceived(packetDropped)
attr title "packet drop: incorrectly received, packetBytes"
vector 150 IoTCommunication.baseStation.eth[4].mac packetDropInterfaceDown:vector(packetBytes) ETV
attr interpolationmode none
attr recordingmode vector(packetBytes)
attr source packetDropReasonIsInterfaceDown(packetDropped)
attr title "packet drop: interface down, packetBytes"
vector 151 IoTCommunication.baseStation.eth[4].mac packetDropNotAddressedToUs:vector(packetBytes) ETV
attr interpolationmode none
attr recordingmode vector(packetBytes)
attr source packetDropReasonIsNotAddressedToUs(packetDropped)
attr title "packet drop: not addressed to us, packetBytes"
vector 152 IoTCommunication.baseStation.eth[4] packetDropInterfaceDown:vector(packetBytes) ETV
attr interpolationmode none
attr recordingmode vector(packetBytes)
attr source packetDropReasonIsInterfaceDown(packetDropped)
attr title "packet drops: interface down, packetBytes"
vector 153 IoTCommunication.baseStation.eth[4] packetDropNoCarrier:vector(packetBytes) ETV
attr interpolationmode none
attr recordingmode vector(packetBytes)
attr source packetDropReasonIsNoCarrier(packetDropped)
attr title "packet drops: no carrier, packetBytes"
vector 154 IoTCommunication.baseStation.eth[5].queue queueLength:vector ETV
attr autoWarmupFilter false
attr interpolationmode sample-hold
attr recordingmode vector
attr source "warmup(atomic(constant0(packetPushEnded) + count(packetPushStarted) - count(packetPulled) - count(packetRemoved) - count(packetDropped)))"
attr title "queue length"
attr unit pk
vector 155 IoTCommunication.baseStation.eth[5].queue queueBitLength:vector ETV
attr autoWarmupFilter false
attr interpolationmode sample-hold
attr recordingmode vector
attr source "warmup(atomic(constant0(packetPushEnded) + sum(packetLength(packetPushStarted)) - sum(packetLength(packetPulled)) - sum(packetLength(packetRemoved)) - sum(packetLength(packetDropped))))"
attr title "queue bit length"
attr unit b
vector 156 IoTCommunication.baseStation.eth[5].queue queueingTime:vector ETV
attr interpolationmode none
attr recordingmode vector
attr source queueingTime(packetPulled)
attr title "queueing times"
attr unit s
vector 157 IoTCommunication.baseStation.eth[5].queue incomingPacketLengths:vector ETV
attr interpolationmode none
attr recordingmode vector
attr source packetLength(packetPushStarted)
attr title "incoming packet lengths"
attr unit b
vector 158 IoTCommunication.baseStation.eth[5].queue incomingDataRate:vector ETV
attr interpolationmode linear
attr recordingmode vector
attr source throughput(packetPushStarted)
attr title "incoming datarate"
attr unit bps
vector 159 IoTCommunication.baseStation.eth[5].queue outgoingPacketLengths:vector ETV
attr interpolationmode none
attr recordingmode vector
attr source packetLength(packetPulled)
attr title "outgoing packet lengths"
attr unit b
vector 160 IoTCommunication.baseStation.eth[5].queue outgoingDataRate:vector ETV
attr interpolationmode linear
attr recordingmode vector
attr source throughput(packetPulled)
attr title "outgoing datarate"
attr unit bps
vector 161 IoTCommunication.baseStation.eth[5].queue droppedPacketLengthsQueueOverflow:vector ETV
attr interpolationmode none
attr recordingmode vector
attr source packetLength(packetDropReasonIsQueueOverflow(packetDropped))
attr title "dropped packet lengths: queue overflow"
attr unit b
vector 162 IoTCommunication.baseStation.eth[5].queue flowQueueingTime:vector ETV
attr interpolationmode none
attr recordingmode vector
attr source queueingTime(demuxFlow(packetPulled))
attr title "flow queueing times"
attr unit s
vector 163 IoTCommunication.baseStation.eth[5].queue flowIncomingDataRate:vector ETV
attr interpolationmode linear
attr recordingmode vector
attr source throughput(flowPacketLength(demuxFlow(packetPushStarted)))
attr title "flow specific incoming data rate"
attr unit bps
vector 164 IoTCommunication.baseStation.eth[5].queue flowOutgoingDataRate:vector ETV
attr interpolationmode linear
attr recordingmode vector
attr source throughput(flowPacketLength(demuxFlow(packetPulled)))
attr title "flow specific outgoing data rate"
attr unit bps
vector 165 IoTCommunication.baseStation.eth[5].mac txPk:vector(packetBytes) ETV
attr interpolationmode none
attr recordingmode vector(packetBytes)
attr source packetSentToLower
attr title "packets transmitted, packetBytes"
vector 166 IoTCommunication.baseStation.eth[5].mac rxPkOk:vector(packetBytes) ETV
attr interpolationmode none
attr recordingmode vector(packetBytes)
attr source rxPkOk
attr title "packets received OK, packetBytes"
vector 167 IoTCommunication.baseStation.eth[5].mac passedUpPk:vector(packetBytes) ETV
attr interpolationmode none
attr recordingmode vector(packetBytes)
attr source packetSentToUpper
attr title "packets passed to higher layer, packetBytes"
vector 168 IoTCommunication.baseStation.eth[5].mac txPausePkUnits:vector ETV
attr interpolationmode none
attr recordingmode vector
attr title "pause units sent"
vector 169 IoTCommunication.baseStation.eth[5].mac rxPausePkUnits:vector ETV
attr interpolationmode none
attr recordingmode vector
attr title "pause units received"
vector 170 IoTCommunication.baseStation.eth[5].mac packetReceivedFromUpper:vector(packetBytes) ETV
attr interpolationmode none
attr recordingmode vector(packetBytes)
attr source packetReceivedFromUpper
attr title "packet bytes from higher layer, packetBytes"
vector 171 IoTCommunication.baseStation.eth[5].mac packetDropIncorrectlyReceived:vector(packetBytes) ETV
attr interpolationmode none
attr recordingmode vector(packetBytes)
attr source packetDropReasonIsIncorrectlyReceived(packetDropped)
attr title "packet drop: incorrectly received, packetBytes"
vector 172 IoTCommunication.baseStation.eth[5].mac packetDropInterfaceDown:vector(packetBytes) ETV
attr interpolationmode none
attr recordingmode vector(packetBytes)
attr source packetDropReasonIsInterfaceDown(packetDropped)
attr title "packet drop: interface down, packetBytes"
vector 173 IoTCommunication.baseStation.eth[5].mac packetDropNotAddressedToUs:vector(packetBytes) ETV
attr interpolationmode none
attr recordingmode vector(packetBytes)
attr source packetDropReasonIsNotAddressedToUs(packetDropped)
attr title "packet drop: not addressed to us, packetBytes"
vector 174 IoTCommunication.baseStation.eth[5] packetDropInterfaceDown:vector(packetBytes) ETV
attr interpolationmode none
attr recordingmode vector(packetBytes)
attr source packetDropReasonIsInterfaceDown(packetDropped)
attr title "packet drops: interface down, packetBytes"
vector 175 IoTCommunication.baseStation.eth[5] packetDropNoCarrier:vector(packetBytes) ETV
attr interpolationmode none
attr recordingmode vector(packetBytes)
attr source packetDropReasonIsNoCarrier(packetDropped)
attr title "packet drops: no carrier, packetBytes"
vector 176 IoTCommunication.baseStation.ipv4.ip packetDropAddressResolutionFailed:vector(packetBytes) ETV
attr interpolationmode none
attr recordingmode vector(packetBytes)
attr source packetDropReasonIsAddressResolutionFailed(packetDropped)
attr title "packet drop: address resolution failed, packetBytes"
vector 177 IoTCommunication.baseStation.ipv4.ip packetDropHopLimitReached:vector(packetBytes) ETV
attr interpolationmode none
attr recordingmode vector(packetBytes)
attr source packetDropReasonIsHopLimitReached(packetDropped)
attr title "packet drop: hop limit reached, packetBytes"
vector 178 IoTCommunication.baseStation.ipv4.ip packetDropForwardingDisabled:vector(packetBytes) ETV
attr interpolationmode none
attr recordingmode vector(packetBytes)
attr source packetDropReasonIsForwardingDisabled(packetDropped)
attr title "packet drop: forwarding disabled, packetBytes"
vector 179 IoTCommunication.baseStation.ipv4.ip packetDropNoInterfaceFound:vector(packetBytes) ETV
attr interpolationmode none
attr recordingmode vector(packetBytes)
attr source packetDropReasonIsNoInterfaceFound(packetDropped)
attr title "packet drop: no interface found, packetBytes"
vector 180 IoTCommunication.baseStation.ipv4.ip packetDropNoRouteFound:vector(packetBytes) ETV
attr interpolationmode none
attr recordingmode vector(packetBytes)
attr source packetDropReasonIsNoRouteFound(packetDropped)
attr title "packet drop: no route found, packetBytes"
vector 181 IoTCommunication.baseStation.ipv4.ip packetDropUndefined:vector(packetBytes) ETV
attr interpolationmode none
attr recordingmode vector(packetBytes)
attr source packetDropReasonIsUndefined(packetDropped)
attr title "packet drop: undefined, packetBytes"
vector 182 IoTCommunication.baseStation.ipv4.arp arpRequestSent:vector(packetBytes) ETV
attr recordingmode vector(packetBytes)
attr source arpRequestSent
attr title "ARP request sent, packetBytes"
vector 183 IoTCommunication.baseStation.ipv4.arp arpReplySent:vector(packetBytes) ETV
attr recordingmode vector(packetBytes)
attr source arpReplySent
attr title "ARP replies sent, packetBytes"
vector 184 IoTCommunication.iotDevice[0].ethernet encapPk:vector(packetBytes) ETV
attr interpolationmode none
attr recordingmode vector(packetBytes)
attr source encapPk
attr title "packets encapsulated, packetBytes"
vector 185 IoTCommunication.iotDevice[0].ethernet decapPk:vector(packetBytes) ETV
attr interpolationmode none
attr recordingmode vector(packetBytes)
attr source decapPk
attr title "packets decapsulated, packetBytes"
vector 186 IoTCommunication.iotDevice[0].ethernet pauseSent:vector ETV
attr recordingmode vector
attr title "pause sent"
vector 187 IoTCommunication.iotDevice[0].lo[0].lo rcvdPkFromHl:vector(packetBytes) ETV
attr interpolationmode none
attr recordingmode vector(packetBytes)
attr source packetReceivedFromUpper
attr title "packets received from higher layer, packetBytes"
vector 188 IoTCommunication.iotDevice[0].lo[0].lo passedUpPk:vector(packetBytes) ETV
attr interpolationmode none
attr recordingmode vector(packetBytes)
attr source packetSentToUpper
attr title "packets passed to higher layer, packetBytes"
vector 189 IoTCommunication.iotDevice[0].lo[0] packetDropInterfaceDown:vector(packetBytes) ETV
attr interpolationmode none
attr recordingmode vector(packetBytes)
attr source packetDropReasonIsInterfaceDown(packetDropped)
attr title "packet drops: interface down, packetBytes"
vector 190 IoTCommunication.iotDevice[0].lo[0] packetDropNoCarrier:vector(packetBytes) ETV
attr interpolationmode none
attr recordingmode vector(packetBytes)
attr source packetDropReasonIsNoCarrier(packetDropped)
attr title "packet drops: no carrier, packetBytes"
vector 191 IoTCommunication.iotDevice[0].eth[0].queue queueLength:vector ETV
attr autoWarmupFilter false
attr interpolationmode sample-hold
attr recordingmode vector
attr source "warmup(atomic(constant0(packetPushEnded) + count(packetPushStarted) - count(packetPulled) - count(packetRemoved) - count(packetDropped)))"
attr title "queue length"
attr unit pk
vector 192 IoTCommunication.iotDevice[0].eth[0].queue queueBitLength:vector ETV
attr autoWarmupFilter false
attr interpolationmode sample-hold
attr recordingmode vector
attr source "warmup(atomic(constant0(packetPushEnded) + sum(packetLength(packetPushStarted)) - sum(packetLength(packetPulled)) - sum(packetLength(packetRemoved)) - sum(packetLength(packetDropped))))"
attr title "queue bit length"
attr unit b
vector 193 IoTCommunication.iotDevice[0].eth[0].queue queueingTime:vector ETV
attr interpolationmode none
attr recordingmode vector
attr source queueingTime(packetPulled)
attr title "queueing times"
attr unit s
vector 194 IoTCommunication.iotDevice[0].eth[0].queue incomingPacketLengths:vector ETV
attr interpolationmode none
attr recordingmode vector
attr source packetLength(packetPushStarted)
attr title "incoming packet lengths"
attr unit b
vector 195 IoTCommunication.iotDevice[0].eth[0].queue incomingDataRate:vector ETV
attr interpolationmode linear
attr recordingmode vector
attr source throughput(packetPushStarted)
attr title "incoming datarate"
attr unit bps
vector 196 IoTCommunication.iotDevice[0].eth[0].queue outgoingPacketLengths:vector ETV
attr interpolationmode none
attr recordingmode vector
attr source packetLength(packetPulled)
attr title "outgoing packet lengths"
attr unit b
vector 197 IoTCommunication.iotDevice[0].eth[0].queue outgoingDataRate:vector ETV
attr interpolationmode linear
attr recordingmode vector
attr source throughput(packetPulled)
attr title "outgoing datarate"
attr unit bps
vector 198 IoTCommunication.iotDevice[0].eth[0].queue droppedPacketLengthsQueueOverflow:vector ETV
attr interpolationmode none
attr recordingmode vector
attr source packetLength(packetDropReasonIsQueueOverflow(packetDropped))
attr title "dropped packet lengths: queue overflow"
attr unit b
vector 199 IoTCommunication.iotDevice[0].eth[0].queue flowQueueingTime:vector ETV
attr interpolationmode none
attr recordingmode vector
attr source queueingTime(demuxFlow(packetPulled))
attr title "flow queueing times"
attr unit s
vector 200 IoTCommunication.iotDevice[0].eth[0].queue flowIncomingDataRate:vector ETV
attr interpolationmode linear
attr recordingmode vector
attr source throughput(flowPacketLength(demuxFlow(packetPushStarted)))
attr title "flow specific incoming data rate"
attr unit bps
vector 201 IoTCommunication.iotDevice[0].eth[0].queue flowOutgoingDataRate:vector ETV
attr interpolationmode linear
attr recordingmode vector
attr source throughput(flowPacketLength(demuxFlow(packetPulled)))
attr title "flow specific outgoing data rate"
attr unit bps
vector 202 IoTCommunication.iotDevice[0].eth[0].mac txPk:vector(packetBytes) ETV
attr interpolationmode none
attr recordingmode vector(packetBytes)
attr source packetSentToLower
attr title "packets transmitted, packetBytes"
vector 203 IoTCommunication.iotDevice[0].eth[0].mac rxPkOk:vector(packetBytes) ETV
attr interpolationmode none
attr recordingmode vector(packetBytes)
attr source rxPkOk
attr title "packets received OK, packetBytes"
vector 204 IoTCommunication.iotDevice[0].eth[0].mac passedUpPk:vector(packetBytes) ETV
attr interpolationmode none
attr recordingmode vector(packetBytes)
attr source packetSentToUpper
attr title "packets passed to higher layer, packetBytes"
vector 205 IoTCommunication.iotDevice[0].eth[0].mac txPausePkUnits:vector ETV
attr interpolationmode none
attr recordingmode vector
attr title "pause units sent"
vector 206 IoTCommunication.iotDevice[0].eth[0].mac rxPausePkUnits:vector ETV
attr interpolationmode none
attr recordingmode vector
attr title "pause units received"
vector 207 IoTCommunication.iotDevice[0].eth[0].mac packetReceivedFromUpper:vector(packetBytes) ETV
attr interpolationmode none
attr recordingmode vector(packetBytes)
attr source packetReceivedFromUpper
attr title "packet bytes from higher layer, packetBytes"
vector 208 IoTCommunication.iotDevice[0].eth[0].mac packetDropIncorrectlyReceived:vector(packetBytes) ETV
attr interpolationmode none
attr recordingmode vector(packetBytes)
attr source packetDropReasonIsIncorrectlyReceived(packetDropped)
attr title "packet drop: incorrectly received, packetBytes"
vector 209 IoTCommunication.iotDevice[0].eth[0].mac packetDropInterfaceDown:vector(packetBytes) ETV
attr interpolationmode none
attr recordingmode vector(packetBytes)
attr source packetDropReasonIsInterfaceDown(packetDropped)
attr title "packet drop: interface down, packetBytes"
vector 210 IoTCommunication.iotDevice[0].eth[0].mac packetDropNotAddressedToUs:vector(packetBytes) ETV
attr interpolationmode none
attr recordingmode vector(packetBytes)
attr source packetDropReasonIsNotAddressedToUs(packetDropped)
attr title "packet drop: not addressed to us, packetBytes"
vector 211 IoTCommunication.iotDevice[0].eth[0] packetDropInterfaceDown:vector(packetBytes) ETV
attr interpolationmode none
attr recordingmode vector(packetBytes)
attr source packetDropReasonIsInterfaceDown(packetDropped)
attr title "packet drops: interface down, packetBytes"
vector 212 IoTCommunication.iotDevice[0].eth[0] packetDropNoCarrier:vector(packetBytes) ETV
attr interpolationmode none
attr recordingmode vector(packetBytes)
attr source packetDropReasonIsNoCarrier(packetDropped)
attr title "packet drops: no carrier, packetBytes"
vector 213 IoTCommunication.iotDevice[0].ipv4.ip packetDropAddressResolutionFailed:vector(packetBytes) ETV
attr interpolationmode none
attr recordingmode vector(packetBytes)
attr source packetDropReasonIsAddressResolutionFailed(packetDropped)
attr title "packet drop: address resolution failed, packetBytes"
vector 214 IoTCommunication.iotDevice[0].ipv4.ip packetDropHopLimitReached:vector(packetBytes) ETV
attr interpolationmode none
attr recordingmode vector(packetBytes)
attr source packetDropReasonIsHopLimitReached(packetDropped)
attr title "packet drop: hop limit reached, packetBytes"
vector 215 IoTCommunication.iotDevice[0].ipv4.ip packetDropForwardingDisabled:vector(packetBytes) ETV
attr interpolationmode none
attr recordingmode vector(packetBytes)
attr source packetDropReasonIsForwardingDisabled(packetDropped)
attr title "packet drop: forwarding disabled, packetBytes"
vector 216 IoTCommunication.iotDevice[0].ipv4.ip packetDropNoInterfaceFound:vector(packetBytes) ETV
attr interpolationmode none
attr recordingmode vector(packetBytes)
attr source packetDropReasonIsNoInterfaceFound(packetDropped)
attr title "packet drop: no interface found, packetBytes"
vector 217 IoTCommunication.iotDevice[0].ipv4.ip packetDropNoRouteFound:vector(packetBytes) ETV
attr interpolationmode none
attr recordingmode vector(packetBytes)
attr source packetDropReasonIsNoRouteFound(packetDropped)
attr title "packet drop: no route found, packetBytes"
vector 218 IoTCommunication.iotDevice[0].ipv4.ip packetDropUndefined:vector(packetBytes) ETV
attr interpolationmode none
attr recordingmode vector(packetBytes)
attr source packetDropReasonIsUndefined(packetDropped)
attr title "packet drop: undefined, packetBytes"
vector 219 IoTCommunication.iotDevice[0].ipv4.arp arpRequestSent:vector(packetBytes) ETV
attr recordingmode vector(packetBytes)
attr source arpRequestSent
attr title "ARP request sent, packetBytes"
vector 220 IoTCommunication.iotDevice[0].ipv4.arp arpReplySent:vector(packetBytes) ETV
attr recordingmode vector(packetBytes)
attr source arpReplySent
attr title "ARP replies sent, packetBytes"
vector 221 IoTCommunication.iotDevice[0].udp packetSent:vector(packetBytes) ETV
attr interpolationmode none
attr recordingmode vector(packetBytes)
attr source packetSent
attr title "packets sent, packetBytes"
vector 222 IoTCommunication.iotDevice[0].udp packetReceived:vector(packetBytes) ETV
attr interpolationmode none
attr recordingmode vector(packetBytes)
attr source packetReceived
attr title "packets received, packetBytes"
vector 223 IoTCommunication.iotDevice[0].udp passedUpPk:vector(count) ETV
attr interpolationmode none
attr recordingmode vector(count)
attr source packetSentToUpper
attr title "packets passed up, count"
vector 224 IoTCommunication.iotDevice[0].udp droppedPkWrongPort:vector(count) ETV
attr interpolationmode none
attr recordingmode vector(count)
attr source packetDropReasonIsNoPortFound(packetDropped)
attr title "packets dropped (wrong port), count"
vector 225 IoTCommunication.iotDevice[0].udp droppedPkBadChecksum:vector(count) ETV
attr interpolationmode none
attr recordingmode vector(count)
attr source packetDropReasonIsIncorrectlyReceived(packetDropped)
attr title "packets dropped (checksum error), count"
vector 226 IoTCommunication.iotDevice[0].app[0] packetReceived:vector(packetBytes) ETV
attr interpolationmode none
attr recordingmode vector(packetBytes)
attr source packetReceived
attr title "packets received, packetBytes"
vector 227 IoTCommunication.iotDevice[0].app[0] throughput:vector ETV
attr recordingmode vector
attr source throughput(packetReceived)
attr title throughput
attr unit bps
vector 228 IoTCommunication.iotDevice[0].app[0] packetSent:vector(packetBytes) ETV
attr interpolationmode none
attr recordingmode vector(packetBytes)
attr source packetSent
attr title "packets sent, packetBytes"
vector 229 IoTCommunication.iotDevice[0].app[0] rcvdPkLifetime:vector ETV
attr interpolationmode none
attr recordingmode vector
attr source dataAge(packetReceived)
attr title "received packet lifetime"
attr unit s
vector 230 IoTCommunication.iotDevice[0].app[0] rcvdPkSeqNo:vector ETV
attr interpolationmode none
attr recordingmode vector
attr source appPkSeqNo(packetReceived)
attr title "received packet sequence number"
vector 231 IoTCommunication.iotDevice[1].ethernet encapPk:vector(packetBytes) ETV
attr interpolationmode none
attr recordingmode vector(packetBytes)
attr source encapPk
attr title "packets encapsulated, packetBytes"
vector 232 IoTCommunication.iotDevice[1].ethernet decapPk:vector(packetBytes) ETV
attr interpolationmode none
attr recordingmode vector(packetBytes)
attr source decapPk
attr title "packets decapsulated, packetBytes"
vector 233 IoTCommunication.iotDevice[1].ethernet pauseSent:vector ETV
attr recordingmode vector
attr title "pause sent"
vector 234 IoTCommunication.iotDevice[1].lo[0].lo rcvdPkFromHl:vector(packetBytes) ETV
attr interpolationmode none
attr recordingmode vector(packetBytes)
attr source packetReceivedFromUpper
attr title "packets received from higher layer, packetBytes"
vector 235 IoTCommunication.iotDevice[1].lo[0].lo passedUpPk:vector(packetBytes) ETV
attr interpolationmode none
attr recordingmode vector(packetBytes)
attr source packetSentToUpper
attr title "packets passed to higher layer, packetBytes"
vector 236 IoTCommunication.iotDevice[1].lo[0] packetDropInterfaceDown:vector(packetBytes) ETV
attr interpolationmode none
attr recordingmode vector(packetBytes)
attr source packetDropReasonIsInterfaceDown(packetDropped)
attr title "packet drops: interface down, packetBytes"
vector 237 IoTCommunication.iotDevice[1].lo[0] packetDropNoCarrier:vector(packetBytes) ETV
attr interpolationmode none
attr recordingmode vector(packetBytes)
attr source packetDropReasonIsNoCarrier(packetDropped)
attr title "packet drops: no carrier, packetBytes"
vector 238 IoTCommunication.iotDevice[1].eth[0].queue queueLength:vector ETV
attr autoWarmupFilter false
attr interpolationmode sample-hold
attr recordingmode vector
attr source "warmup(atomic(constant0(packetPushEnded) + count(packetPushStarted) - count(packetPulled) - count(packetRemoved) - count(packetDropped)))"
attr title "queue length"
attr unit pk
vector 239 IoTCommunication.iotDevice[1].eth[0].queue queueBitLength:vector ETV
attr autoWarmupFilter false
attr interpolationmode sample-hold
attr recordingmode vector
attr source "warmup(atomic(constant0(packetPushEnded) + sum(packetLength(packetPushStarted)) - sum(packetLength(packetPulled)) - sum(packetLength(packetRemoved)) - sum(packetLength(packetDropped))))"
attr title "queue bit length"
attr unit b
vector 240 IoTCommunication.iotDevice[1].eth[0].queue queueingTime:vector ETV
attr interpolationmode none
attr recordingmode vector
attr source queueingTime(packetPulled)
attr title "queueing times"
attr unit s
vector 241 IoTCommunication.iotDevice[1].eth[0].queue incomingPacketLengths:vector ETV
attr interpolationmode none
attr recordingmode vector
attr source packetLength(packetPushStarted)
attr title "incoming packet lengths"
attr unit b
vector 242 IoTCommunication.iotDevice[1].eth[0].queue incomingDataRate:vector ETV
attr interpolationmode linear
attr recordingmode vector
attr source throughput(packetPushStarted)
attr title "incoming datarate"
attr unit bps
vector 243 IoTCommunication.iotDevice[1].eth[0].queue outgoingPacketLengths:vector ETV
attr interpolationmode none
attr recordingmode vector
attr source packetLength(packetPulled)
attr title "outgoing packet lengths"
attr unit b
vector 244 IoTCommunication.iotDevice[1].eth[0].queue outgoingDataRate:vector ETV
attr interpolationmode linear
attr recordingmode vector
attr source throughput(packetPulled)
attr title "outgoing datarate"
attr unit bps
vector 245 IoTCommunication.iotDevice[1].eth[0].queue droppedPacketLengthsQueueOverflow:vector ETV
attr interpolationmode none
attr recordingmode vector
attr source packetLength(packetDropReasonIsQueueOverflow(packetDropped))
attr title "dropped packet lengths: queue overflow"
attr unit b
vector 246 IoTCommunication.iotDevice[1].eth[0].queue flowQueueingTime:vector ETV
attr interpolationmode none
attr recordingmode vector
attr source queueingTime(demuxFlow(packetPulled))
attr title "flow queueing times"
attr unit s
vector 247 IoTCommunication.iotDevice[1].eth[0].queue flowIncomingDataRate:vector ETV
attr interpolationmode linear
attr recordingmode vector
attr source throughput(flowPacketLength(demuxFlow(packetPushStarted)))
attr title "flow specific incoming data rate"
attr unit bps
vector 248 IoTCommunication.iotDevice[1].eth[0].queue flowOutgoingDataRate:vector ETV
attr interpolationmode linear
attr recordingmode vector
attr source throughput(flowPacketLength(demuxFlow(packetPulled)))
attr title "flow specific outgoing data rate"
attr unit bps
vector 249 IoTCommunication.iotDevice[1].eth[0].mac txPk:vector(packetBytes) ETV
attr interpolationmode none
attr recordingmode vector(packetBytes)
attr source packetSentToLower
attr title "packets transmitted, packetBytes"
vector 250 IoTCommunication.iotDevice[1].eth[0].mac rxPkOk:vector(packetBytes) ETV
attr interpolationmode none
attr recordingmode vector(packetBytes)
attr source rxPkOk
attr title "packets received OK, packetBytes"
vector 251 IoTCommunication.iotDevice[1].eth[0].mac passedUpPk:vector(packetBytes) ETV
attr interpolationmode none
attr recordingmode vector(packetBytes)
attr source packetSentToUpper
attr title "packets passed to higher layer, packetBytes"
vector 252 IoTCommunication.iotDevice[1].eth[0].mac txPausePkUnits:vector ETV
attr interpolationmode none
attr recordingmode vector
attr title "pause units sent"
vector 253 IoTCommunication.iotDevice[1].eth[0].mac rxPausePkUnits:vector ETV
attr interpolationmode none
attr recordingmode vector
attr title "pause units received"
vector 254 IoTCommunication.iotDevice[1].eth[0].mac packetReceivedFromUpper:vector(packetBytes) ETV
attr interpolationmode none
attr recordingmode vector(packetBytes)
attr source packetReceivedFromUpper
attr title "packet bytes from higher layer, packetBytes"
vector 255 IoTCommunication.iotDevice[1].eth[0].mac packetDropIncorrectlyReceived:vector(packetBytes) ETV
attr interpolationmode none
attr recordingmode vector(packetBytes)
attr source packetDropReasonIsIncorrectlyReceived(packetDropped)
attr title "packet drop: incorrectly received, packetBytes"
vector 256 IoTCommunication.iotDevice[1].eth[0].mac packetDropInterfaceDown:vector(packetBytes) ETV
attr interpolationmode none
attr recordingmode vector(packetBytes)
attr source packetDropReasonIsInterfaceDown(packetDropped)
attr title "packet drop: interface down, packetBytes"
vector 257 IoTCommunication.iotDevice[1].eth[0].mac packetDropNotAddressedToUs:vector(packetBytes) ETV
attr interpolationmode none
attr recordingmode vector(packetBytes)
attr source packetDropReasonIsNotAddressedToUs(packetDropped)
attr title "packet drop: not addressed to us, packetBytes"
vector 258 IoTCommunication.iotDevice[1].eth[0] packetDropInterfaceDown:vector(packetBytes) ETV
attr interpolationmode none
attr recordingmode vector(packetBytes)
attr source packetDropReasonIsInterfaceDown(packetDropped)
attr title "packet drops: interface down, packetBytes"
vector 259 IoTCommunication.iotDevice[1].eth[0] packetDropNoCarrier:vector(packetBytes) ETV
attr interpolationmode none
attr recordingmode vector(packetBytes)
attr source packetDropReasonIsNoCarrier(packetDropped)
attr title "packet drops: no carrier, packetBytes"
vector 260 IoTCommunication.iotDevice[1].ipv4.ip packetDropAddressResolutionFailed:vector(packetBytes) ETV
attr interpolationmode none
attr recordingmode vector(packetBytes)
attr source packetDropReasonIsAddressResolutionFailed(packetDropped)
attr title "packet drop: address resolution failed, packetBytes"
vector 261 IoTCommunication.iotDevice[1].ipv4.ip packetDropHopLimitReached:vector(packetBytes) ETV
attr interpolationmode none
attr recordingmode vector(packetBytes)
attr source packetDropReasonIsHopLimitReached(packetDropped)
attr title "packet drop: hop limit reached, packetBytes"
vector 262 IoTCommunication.iotDevice[1].ipv4.ip packetDropForwardingDisabled:vector(packetBytes) ETV
attr interpolationmode none
attr recordingmode vector(packetBytes)
attr source packetDropReasonIsForwardingDisabled(packetDropped)
attr title "packet drop: forwarding disabled, packetBytes"
vector 263 IoTCommunication.iotDevice[1].ipv4.ip packetDropNoInterfaceFound:vector(packetBytes) ETV
attr interpolationmode none
attr recordingmode vector(packetBytes)
attr source packetDropReasonIsNoInterfaceFound(packetDropped)
attr title "packet drop: no interface found, packetBytes"
vector 264 IoTCommunication.iotDevice[1].ipv4.ip packetDropNoRouteFound:vector(packetBytes) ETV
attr interpolationmode none
attr recordingmode vector(packetBytes)
attr source packetDropReasonIsNoRouteFound(packetDropped)
attr title "packet drop: no route found, packetBytes"
vector 265 IoTCommunication.iotDevice[1].ipv4.ip packetDropUndefined:vector(packetBytes) ETV
attr interpolationmode none
attr recordingmode vector(packetBytes)
attr source packetDropReasonIsUndefined(packetDropped)
attr title "packet drop: undefined, packetBytes"
vector 266 IoTCommunication.iotDevice[1].ipv4.arp arpRequestSent:vector(packetBytes) ETV
attr recordingmode vector(packetBytes)
attr source arpRequestSent
attr title "ARP request sent, packetBytes"
vector 267 IoTCommunication.iotDevice[1].ipv4.arp arpReplySent:vector(packetBytes) ETV
attr recordingmode vector(packetBytes)
attr source arpReplySent
attr title "ARP replies sent, packetBytes"
vector 268 IoTCommunication.iotDevice[1].udp packetSent:vector(packetBytes) ETV
attr interpolationmode none
attr recordingmode vector(packetBytes)
attr source packetSent
attr title "packets sent, packetBytes"
vector 269 IoTCommunication.iotDevice[1].udp packetReceived:vector(packetBytes) ETV
attr interpolationmode none
attr recordingmode vector(packetBytes)
attr source packetReceived
attr title "packets received, packetBytes"
vector 270 IoTCommunication.iotDevice[1].udp passedUpPk:vector(count) ETV
attr interpolationmode none
attr recordingmode vector(count)
attr source packetSentToUpper
attr title "packets passed up, count"
vector 271 IoTCommunication.iotDevice[1].udp droppedPkWrongPort:vector(count) ETV
attr interpolationmode none
attr recordingmode vector(count)
attr source packetDropReasonIsNoPortFound(packetDropped)
attr title "packets dropped (wrong port), count"
vector 272 IoTCommunication.iotDevice[1].udp droppedPkBadChecksum:vector(count) ETV
attr interpolationmode none
attr recordingmode vector(count)
attr source packetDropReasonIsIncorrectlyReceived(packetDropped)
attr title "packets dropped (checksum error), count"
vector 273 IoTCommunication.iotDevice[1].app[0] packetReceived:vector(packetBytes) ETV
attr interpolationmode none
attr recordingmode vector(packetBytes)
attr source packetReceived
attr title "packets received, packetBytes"
vector 274 IoTCommunication.iotDevice[1].app[0] throughput:vector ETV
attr recordingmode vector
attr source throughput(packetReceived)
attr title throughput
attr unit bps
vector 275 IoTCommunication.iotDevice[1].app[0] packetSent:vector(packetBytes) ETV
attr interpolationmode none
attr recordingmode vector(packetBytes)
attr source packetSent
attr title "packets sent, packetBytes"
vector 276 IoTCommunication.iotDevice[1].app[0] rcvdPkLifetime:vector ETV
attr interpolationmode none
attr recordingmode vector
attr source dataAge(packetReceived)
attr title "received packet lifetime"
attr unit s
vector 277 IoTCommunication.iotDevice[1].app[0] rcvdPkSeqNo:vector ETV
attr interpolationmode none
attr recordingmode vector
attr source appPkSeqNo(packetReceived)
attr title "received packet sequence number"
vector 278 IoTCommunication.iotDevice[2].ethernet encapPk:vector(packetBytes) ETV
attr interpolationmode none
attr recordingmode vector(packetBytes)
attr source encapPk
attr title "packets encapsulated, packetBytes"
vector 279 IoTCommunication.iotDevice[2].ethernet decapPk:vector(packetBytes) ETV
attr interpolationmode none
attr recordingmode vector(packetBytes)
attr source decapPk
attr title "packets decapsulated, packetBytes"
vector 280 IoTCommunication.iotDevice[2].ethernet pauseSent:vector ETV
attr recordingmode vector
attr title "pause sent"
vector 281 IoTCommunication.iotDevice[2].lo[0].lo rcvdPkFromHl:vector(packetBytes) ETV
attr interpolationmode none
attr recordingmode vector(packetBytes)
attr source packetReceivedFromUpper
attr title "packets received from higher layer, packetBytes"
vector 282 IoTCommunication.iotDevice[2].lo[0].lo passedUpPk:vector(packetBytes) ETV
attr interpolationmode none
attr recordingmode vector(packetBytes)
attr source packetSentToUpper
attr title "packets passed to higher layer, packetBytes"
vector 283 IoTCommunication.iotDevice[2].lo[0] packetDropInterfaceDown:vector(packetBytes) ETV
attr interpolationmode none
attr recordingmode vector(packetBytes)
attr source packetDropReasonIsInterfaceDown(packetDropped)
attr title "packet drops: interface down, packetBytes"
vector 284 IoTCommunication.iotDevice[2].lo[0] packetDropNoCarrier:vector(packetBytes) ETV
attr interpolationmode none
attr recordingmode vector(packetBytes)
attr source packetDropReasonIsNoCarrier(packetDropped)
attr title "packet drops: no carrier, packetBytes"
vector 285 IoTCommunication.iotDevice[2].eth[0].queue queueLength:vector ETV
attr autoWarmupFilter false
attr interpolationmode sample-hold
attr recordingmode vector
attr source "warmup(atomic(constant0(packetPushEnded) + count(packetPushStarted) - count(packetPulled) - count(packetRemoved) - count(packetDropped)))"
attr title "queue length"
attr unit pk
vector 286 IoTCommunication.iotDevice[2].eth[0].queue queueBitLength:vector ETV
attr autoWarmupFilter false
attr interpolationmode sample-hold
attr recordingmode vector
attr source "warmup(atomic(constant0(packetPushEnded) + sum(packetLength(packetPushStarted)) - sum(packetLength(packetPulled)) - sum(packetLength(packetRemoved)) - sum(packetLength(packetDropped))))"
attr title "queue bit length"
attr unit b
vector 287 IoTCommunication.iotDevice[2].eth[0].queue queueingTime:vector ETV
attr interpolationmode none
attr recordingmode vector
attr source queueingTime(packetPulled)
attr title "queueing times"
attr unit s
vector 288 IoTCommunication.iotDevice[2].eth[0].queue incomingPacketLengths:vector ETV
attr interpolationmode none
attr recordingmode vector
attr source packetLength(packetPushStarted)
attr title "incoming packet lengths"
attr unit b
vector 289 IoTCommunication.iotDevice[2].eth[0].queue incomingDataRate:vector ETV
attr interpolationmode linear
attr recordingmode vector
attr source throughput(packetPushStarted)
attr title "incoming datarate"
attr unit bps
vector 290 IoTCommunication.iotDevice[2].eth[0].queue outgoingPacketLengths:vector ETV
attr interpolationmode none
attr recordingmode vector
attr source packetLength(packetPulled)
attr title "outgoing packet lengths"
attr unit b
vector 291 IoTCommunication.iotDevice[2].eth[0].queue outgoingDataRate:vector ETV
attr interpolationmode linear
attr recordingmode vector
attr source throughput(packetPulled)
attr title "outgoing datarate"
attr unit bps
vector 292 IoTCommunication.iotDevice[2].eth[0].queue droppedPacketLengthsQueueOverflow:vector ETV
attr interpolationmode none
attr recordingmode vector
attr source packetLength(packetDropReasonIsQueueOverflow(packetDropped))
attr title "dropped packet lengths: queue overflow"
attr unit b
vector 293 IoTCommunication.iotDevice[2].eth[0].queue flowQueueingTime:vector ETV
attr interpolationmode none
attr recordingmode vector
attr source queueingTime(demuxFlow(packetPulled))
attr title "flow queueing times"
attr unit s
vector 294 IoTCommunication.iotDevice[2].eth[0].queue flowIncomingDataRate:vector ETV
attr interpolationmode linear
attr recordingmode vector
attr source throughput(flowPacketLength(demuxFlow(packetPushStarted)))
attr title "flow specific incoming data rate"
attr unit bps
vector 295 IoTCommunication.iotDevice[2].eth[0].queue flowOutgoingDataRate:vector ETV
attr interpolationmode linear
attr recordingmode vector
attr source throughput(flowPacketLength(demuxFlow(packetPulled)))
attr title "flow specific outgoing data rate"
attr unit bps
vector 296 IoTCommunication.iotDevice[2].eth[0].mac txPk:vector(packetBytes) ETV
attr interpolationmode none
attr recordingmode vector(packetBytes)
attr source packetSentToLower
attr title "packets transmitted, packetBytes"
vector 297 IoTCommunication.iotDevice[2].eth[0].mac rxPkOk:vector(packetBytes) ETV
attr interpolationmode none
attr recordingmode vector(packetBytes)
attr source rxPkOk
attr title "packets received OK, packetBytes"
vector 298 IoTCommunication.iotDevice[2].eth[0].mac passedUpPk:vector(packetBytes) ETV
attr interpolationmode none
attr recordingmode vector(packetBytes)
attr source packetSentToUpper
attr title "packets passed to higher layer, packetBytes"
vector 299 IoTCommunication.iotDevice[2].eth[0].mac txPausePkUnits:vector ETV
attr interpolationmode none
attr recordingmode vector
attr title "pause units sent"
vector 300 IoTCommunication.iotDevice[2].eth[0].mac rxPausePkUnits:vector ETV
attr interpolationmode none
attr recordingmode vector
attr title "pause units received"
vector 301 IoTCommunication.iotDevice[2].eth[0].mac packetReceivedFromUpper:vector(packetBytes) ETV
attr interpolationmode none
attr recordingmode vector(packetBytes)
attr source packetReceivedFromUpper
attr title "packet bytes from higher layer, packetBytes"
vector 302 IoTCommunication.iotDevice[2].eth[0].mac packetDropIncorrectlyReceived:vector(packetBytes) ETV
attr interpolationmode none
attr recordingmode vector(packetBytes)
attr source packetDropReasonIsIncorrectlyReceived(packetDropped)
attr title "packet drop: incorrectly received, packetBytes"
vector 303 IoTCommunication.iotDevice[2].eth[0].mac packetDropInterfaceDown:vector(packetBytes) ETV
attr interpolationmode none
attr recordingmode vector(packetBytes)
attr source packetDropReasonIsInterfaceDown(packetDropped)
attr title "packet drop: interface down, packetBytes"
vector 304 IoTCommunication.iotDevice[2].eth[0].mac packetDropNotAddressedToUs:vector(packetBytes) ETV
attr interpolationmode none
attr recordingmode vector(packetBytes)
[...]
336	178	0.1	0
336	178	0.2	0
336	178	0.3	0
336	178	0.4	0
336	178	0.5	0
336	178	0.6	0
336	178	0.7	0
336	178	0.8	0
336	339	0.9	16960
336	339	1	0
336	339	1.1	0
336	339	1.2	0
336	339	1.3	0
336	339	1.4	0
336	339	1.5	0
336	339	1.6	0
336	339	1.7	0
336	339	1.8	0
336	339	1.9	0
336	339	2	0
336	339	2.1	0
336	339	2.2	0
336	339	2.3	0
336	339	2.4	0
336	339	2.5	0
336	339	2.6	0
336	339	2.7	0
336	339	2.8	0
336	339	2.9	0
336	339	3	0
336	339	3.1	0
336	339	3.2	0
336	339	3.3	0
336	339	3.4	0
336	339	3.5	0
336	339	3.6	0
336	339	3.7	0
336	339	3.8	0
336	339	3.9	0
336	339	4	0
336	339	4.1	0
336	339	4.2	0
336	339	4.3	0
336	339	4.4	0
336	339	4.5	0
336	339	4.6	0
336	339	4.7	0
336	339	4.8	0
336	339	4.9	0
336	339	5	0
336	339	5.1	0
336	339	5.2	0
336	339	5.3	0
336	339	5.4	0
336	339	5.5	0
336	339	5.6	0
336	339	5.7	0
336	339	5.8	0
336	563	5.9	13280
336	563	6	0
336	563	6.1	0
336	563	6.2	0
336	563	6.3	0
336	563	6.4	0
336	563	6.5	0
336	563	6.6	0
336	563	6.7	0
336	563	6.8	0
336	563	6.9	0
336	563	7	0
336	563	7.1	0
336	563	7.2	0
336	563	7.3	0
336	563	7.4	0
336	563	7.5	0
336	563	7.6	0
336	563	7.7	0
336	563	7.8	0
336	563	7.9	0
336	563	8	0
336	563	8.1	0
336	563	8.2	0
336	563	8.3	0
336	563	8.4	0
336	563	8.5	0
336	563	8.6	0
336	563	8.7	0
336	563	8.8	0
336	563	8.9	0
336	563	9	0
336	563	9.1	0
336	563	9.2	0
336	563	9.3	0
336	563	9.4	0
336	563	9.5	0
336	563	9.6	0
336	563	9.7	0
336	563	9.8	0
336	563	9.9	0
336	563	10	0
336	563	10.1	0
336	563	10.2	0
336	563	10.3	0
336	563	10.4	0
336	563	10.5	0
336	563	10.6	0
336	563	10.7	0
336	563	10.8	0
336	752	10.9	13280
336	752	11	0
336	752	11.1	0
336	752	11.2	0
336	752	11.3	0
336	752	11.4	0
336	752	11.5	0
336	752	11.6	0
336	752	11.7	0
336	752	11.8	0
336	752	11.9	0
336	752	12	0
336	752	12.1	0
336	752	12.2	0
336	752	12.3	0
336	752	12.4	0
336	752	12.5	0
336	752	12.6	0
336	752	12.7	0
336	752	12.8	0
336	752	12.9	0
336	752	13	0
336	752	13.1	0
336	752	13.2	0
336	752	13.3	0
336	752	13.4	0
336	752	13.5	0
336	752	13.6	0
336	752	13.7	0
336	752	13.8	0
336	752	13.9	0
336	752	14	0
336	752	14.1	0
336	752	14.2	0
336	752	14.3	0
336	752	14.4	0
336	752	14.5	0
336	752	14.6	0
336	752	14.7	0
336	752	14.8	0
336	752	14.9	0
336	752	15	0
336	752	15.1	0
336	752	15.2	0
336	752	15.3	0
336	752	15.4	0
336	752	15.5	0
336	752	15.6	0
336	752	15.7	0
336	752	15.8	0
336	931	15.9	13280
336	931	16	0
336	931	16.1	0
336	931	16.2	0
336	931	16.3	0
336	931	16.4	0
336	931	16.5	0
336	931	16.6	0
336	931	16.7	0
336	931	16.8	0
336	931	16.9	0
336	931	17	0
336	931	17.1	0
336	931	17.2	0
336	931	17.3	0
336	931	17.4	0
336	931	17.5	0
336	931	17.6	0
336	931	17.7	0
336	931	17.8	0
336	931	17.9	0
336	931	18	0
336	931	18.1	0
336	931	18.2	0
336	931	18.3	0
336	931	18.4	0
336	931	18.5	0
336	931	18.6	0
336	931	18.7	0
336	931	18.8	0
336	931	18.9	0
336	931	19	0
336	931	19.1	0
336	931	19.2	0
336	931	19.3	0
336	931	19.4	0
336	931	19.5	0
336	931	19.6	0
336	931	19.7	0
336	931	19.8	0
336	931	19.9	0
336	931	20	0
337	178	0.84426574409	368
337	192	0.84447726409	1328
337	339	5.84426574409	1328
337	563	10.84426574409	1328
337	752	15.84426574409	1328
338	178	0.1	0
338	178	0.2	0
338	178	0.3	0
338	178	0.4	0
338	178	0.5	0
338	178	0.6	0
338	178	0.7	0
338	178	0.8	0
338	339	0.9	16960
338	339	1	0
338	339	1.1	0
338	339	1.2	0
338	339	1.3	0
338	339	1.4	0
338	339	1.5	0
338	339	1.6	0
338	339	1.7	0
338	339	1.8	0
338	339	1.9	0
338	339	2	0
338	339	2.1	0
338	339	2.2	0
338	339	2.3	0
338	339	2.4	0
338	339	2.5	0
338	339	2.6	0
338	339	2.7	0
338	339	2.8	0
338	339	2.9	0
338	339	3	0
338	339	3.1	0
338	339	3.2	0
338	339	3.3	0
338	339	3.4	0
338	339	3.5	0
338	339	3.6	0
338	339	3.7	0
338	339	3.8	0
338	339	3.9	0
338	339	4	0
338	339	4.1	0
338	339	4.2	0
338	339	4.3	0
338	339	4.4	0
338	339	4.5	0
338	339	4.6	0
338	339	4.7	0
338	339	4.8	0
338	339	4.9	0
338	339	5	0
338	339	5.1	0
338	339	5.2	0
338	339	5.3	0
338	339	5.4	0
338	339	5.5	0
338	339	5.6	0
338	339	5.7	0
338	339	5.8	0
338	563	5.9	13280
338	563	6	0
338	563	6.1	0
338	563	6.2	0
338	563	6.3	0
338	563	6.4	0
338	563	6.5	0
338	563	6.6	0
338	563	6.7	0
338	563	6.8	0
338	563	6.9	0
338	563	7	0
338	563	7.1	0
338	563	7.2	0
338	563	7.3	0
338	563	7.4	0
338	563	7.5	0
338	563	7.6	0
338	563	7.7	0
338	563	7.8	0
338	563	7.9	0
338	563	8	0
338	563	8.1	0
338	563	8.2	0
338	563	8.3	0
338	563	8.4	0
338	563	8.5	0
338	563	8.6	0
338	563	8.7	0
338	563	8.8	0
338	563	8.9	0
338	563	9	0
338	563	9.1	0
338	563	9.2	0
338	563	9.3	0
338	563	9.4	0
338	563	9.5	0
338	563	9.6	0
338	563	9.7	0
338	563	9.8	0
338	563	9.9	0
338	563	10	0
338	563	10.1	0
338	563	10.2	0
338	563	10.3	0
338	563	10.4	0
338	563	10.5	0
338	563	10.6	0
338	563	10.7	0
338	563	10.8	0
338	752	10.9	13280
338	752	11	0
338	752	11.1	0
338	752	11.2	0
338	752	11.3	0
338	752	11.4	0
338	752	11.5	0
338	752	11.6	0
338	752	11.7	0
338	752	11.8	0
338	752	11.9	0
338	752	12	0
338	752	12.1	0
338	752	12.2	0
338	752	12.3	0
338	752	12.4	0
338	752	12.5	0
338	752	12.6	0
338	752	12.7	0
338	752	12.8	0
338	752	12.9	0
338	752	13	0
338	752	13.1	0
338	752	13.2	0
338	752	13.3	0
338	752	13.4	0
338	752	13.5	0
338	752	13.6	0
338	752	13.7	0
338	752	13.8	0
338	752	13.9	0
338	752	14	0
338	752	14.1	0
338	752	14.2	0
338	752	14.3	0
338	752	14.4	0
338	752	14.5	0
338	752	14.6	0
338	752	14.7	0
338	752	14.8	0
338	752	14.9	0
338	752	15	0
338	752	15.1	0
338	752	15.2	0
338	752	15.3	0
338	752	15.4	0
338	752	15.5	0
338	752	15.6	0
338	752	15.7	0
338	752	15.8	0
338	931	15.9	13280
338	931	16	0
338	931	16.1	0
338	931	16.2	0
338	931	16.3	0
338	931	16.4	0
338	931	16.5	0
338	931	16.6	0
338	931	16.7	0
338	931	16.8	0
338	931	16.9	0
338	931	17	0
338	931	17.1	0
338	931	17.2	0
338	931	17.3	0
338	931	17.4	0
338	931	17.5	0
338	931	17.6	0
338	931	17.7	0
338	931	17.8	0
338	931	17.9	0
338	931	18	0
338	931	18.1	0
338	931	18.2	0
338	931	18.3	0
338	931	18.4	0
338	931	18.5	0
338	931	18.6	0
338	931	18.7	0
338	931	18.8	0
338	931	18.9	0
338	931	19	0
338	931	19.1	0
338	931	19.2	0
338	931	19.3	0
338	931	19.4	0
338	931	19.5	0
338	931	19.6	0
338	931	19.7	0
338	931	19.8	0
338	931	19.9	0
338	931	20	0
343	179	0.84427150409	64
343	193	0.84449118409	166
343	340	5.84427966409	166
343	564	10.84427966409	166
343	753	15.84427966409	166
344	188	0.84447726409	64
344	217	0.84491822409	74
344	364	5.84470670409	74
344	588	10.84470670409	74
344	777	15.84470670409	74
345	188	0.84447726409	64
345	217	0.84491822409	74
345	364	5.84470670409	74
345	588	10.84470670409	74
345	777	15.84470670409	74
348	178	0.84426574409	46
348	192	0.84447726409	166
348	339	5.84426574409	166
348	563	10.84426574409	166
348	752	15.84426574409	166
360	176	0.84426574409	28
362	175	0.84426574409	128
362	336	5.84426574409	128
362	560	10.84426574409	128
362	749	15.84426574409	128
364	0	0	0
365	0	0	0
366	0	0	0
368	931	0.1	0
368	931	0.2	0
368	931	0.3	0
368	931	0.4	0
368	931	0.5	0
368	931	0.6	0
368	931	0.7	0
368	931	0.8	0
368	931	0.9	0
368	931	1	0
368	931	1.1	0
368	931	1.2	0
368	931	1.3	0
368	931	1.4	0
368	931	1.5	0
368	931	1.6	0
368	931	1.7	0
368	931	1.8	0
368	931	1.9	0
368	931	2	0
368	931	2.1	0
368	931	2.2	0
368	931	2.3	0
368	931	2.4	0
368	931	2.5	0
368	931	2.6	0
368	931	2.7	0
368	931	2.8	0
368	931	2.9	0
368	931	3	0
368	931	3.1	0
368	931	3.2	0
368	931	3.3	0
368	931	3.4	0
368	931	3.5	0
368	931	3.6	0
368	931	3.7	0
368	931	3.8	0
368	931	3.9	0
368	931	4	0
368	931	4.1	0
368	931	4.2	0
368	931	4.3	0
368	931	4.4	0
368	931	4.5	0
368	931	4.6	0
368	931	4.7	0
368	931	4.8	0
368	931	4.9	0
368	931	5	0
368	931	5.1	0
368	931	5.2	0
368	931	5.3	0
368	931	5.4	0
368	931	5.5	0
368	931	5.6	0
368	931	5.7	0
368	931	5.8	0
368	931	5.9	0
368	931	6	0
368	931	6.1	0
368	931	6.2	0
368	931	6.3	0
368	931	6.4	0
368	931	6.5	0
368	931	6.6	0
368	931	6.7	0
368	931	6.8	0
368	931	6.9	0
368	931	7	0
368	931	7.1	0
368	931	7.2	0
368	931	7.3	0
368	931	7.4	0
368	931	7.5	0
368	931	7.6	0
368	931	7.7	0
368	931	7.8	0
368	931	7.9	0
368	931	8	0
368	931	8.1	0
368	931	8.2	0
368	931	8.3	0
368	931	8.4	0
368	931	8.5	0
368	931	8.6	0
368	931	8.7	0
368	931	8.8	0
368	931	8.9	0
368	931	9	0
368	931	9.1	0
368	931	9.2	0
368	931	9.3	0
368	931	9.4	0
368	931	9.5	0
368	931	9.6	0
368	931	9.7	0
368	931	9.8	0
368	931	9.9	0
368	931	10	0
368	931	10.1	0
368	931	10.2	0
368	931	10.3	0
368	931	10.4	0
368	931	10.5	0
368	931	10.6	0
368	931	10.7	0
368	931	10.8	0
368	931	10.9	0
368	931	11	0
368	931	11.1	0
368	931	11.2	0
368	931	11.3	0
368	931	11.4	0
368	931	11.5	0
368	931	11.6	0
368	931	11.7	0
368	931	11.8	0
368	931	11.9	0
368	931	12	0
368	931	12.1	0
368	931	12.2	0
368	931	12.3	0
368	931	12.4	0
368	931	12.5	0
368	931	12.6	0
368	931	12.7	0
368	931	12.8	0
368	931	12.9	0
368	931	13	0
368	931	13.1	0
368	931	13.2	0
368	931	13.3	0
368	931	13.4	0
368	931	13.5	0
368	931	13.6	0
368	931	13.7	0
368	931	13.8	0
368	931	13.9	0
368	931	14	0
368	931	14.1	0
368	931	14.2	0
368	931	14.3	0
368	931	14.4	0
368	931	14.5	0
368	931	14.6	0
368	931	14.7	0
368	931	14.8	0
368	931	14.9	0
368	931	15	0
368	931	15.1	0
368	931	15.2	0
368	931	15.3	0
368	931	15.4	0
368	931	15.5	0
368	931	15.6	0
368	931	15.7	0
368	931	15.8	0
368	931	15.9	0
368	931	16	0
368	931	16.1	0
368	931	16.2	0
368	931	16.3	0
368	931	16.4	0
368	931	16.5	0
368	931	16.6	0
368	931	16.7	0
368	931	16.8	0
368	931	16.9	0
368	931	17	0
368	931	17.1	0
368	931	17.2	0
368	931	17.3	0
368	931	17.4	0
368	931	17.5	0
368	931	17.6	0
368	931	17.7	0
368	931	17.8	0
368	931	17.9	0
368	931	18	0
368	931	18.1	0
368	931	18.2	0
368	931	18.3	0
368	931	18.4	0
368	931	18.5	0
368	931	18.6	0
368	931	18.7	0
368	931	18.8	0
368	931	18.9	0
368	931	19	0
368	931	19.1	0
368	931	19.2	0
368	931	19.3	0
368	931	19.4	0
368	931	19.5	0
368	931	19.6	0
368	931	19.7	0
368	931	19.8	0
368	931	19.9	0
368	931	20	0
369	173	0.84426574409	120
369	335	5.84426574409	120
369	559	10.84426574409	120
369	748	15.84426574409	120
372	105	0.602763370378	28
372	119	0.602974890378	208
372	429	6.602763370378	208
372	653	12.602763370378	208
372	898	18.602763370378	208
373	117	0.602974890378	46
373	132	0.603200170378	56
373	442	6.602988650378	56
373	666	12.602988650378	56
373	911	18.602988650378	56
379	0	0	0
379	0	0	0
379	0	0	0
379	0	0	0
379	0	0	0
379	106	0.602763370378	0
379	120	0.602974890378	0
379	430	6.602763370378	0
379	654	12.602763370378	0
379	899	18.602763370378	0
380	0	0	0
380	0	0	0
380	0	0	0
380	0	0	0
380	0	0	0
380	106	0.602763370378	0
380	120	0.602974890378	0
380	430	6.602763370378	0
380	654	12.602763370378	0
380	899	18.602763370378	0
381	106	0.602763370378	0
381	120	0.602974890378	0
381	430	6.602763370378	0
381	654	12.602763370378	0
381	899	18.602763370378	0
382	106	0.602763370378	368
382	120	0.602974890378	1808
382	430	6.602763370378	1808
382	654	12.602763370378	1808
382	899	18.602763370378	1808
383	106	0.1	0
383	106	0.2	0
383	106	0.3	0
383	106	0.4	0
383	106	0.5	0
383	106	0.6	0
383	430	0.7	21760
383	430	0.8	0
383	430	0.9	0
383	430	1	0
383	430	1.1	0
383	430	1.2	0
383	430	1.3	0
383	430	1.4	0
383	430	1.5	0
383	430	1.6	0
383	430	1.7	0
383	430	1.8	0
383	430	1.9	0
383	430	2	0
383	430	2.1	0
383	430	2.2	0
383	430	2.3	0
383	430	2.4	0
383	430	2.5	0
383	430	2.6	0
383	430	2.7	0
383	430	2.8	0
383	430	2.9	0
383	430	3	0
383	430	3.1	0
383	430	3.2	0
383	430	3.3	0
383	430	3.4	0
383	430	3.5	0
383	430	3.6	0
383	430	3.7	0
383	430	3.8	0
383	430	3.9	0
383	430	4	0
383	430	4.1	0
383	430	4.2	0
383	430	4.3	0
383	430	4.4	0
383	430	4.5	0
383	430	4.6	0
383	430	4.7	0
383	430	4.8	0
383	430	4.9	0
383	430	5	0
383	430	5.1	0
383	430	5.2	0
383	430	5.3	0
383	430	5.4	0
383	430	5.5	0
383	430	5.6	0
383	430	5.7	0
383	430	5.8	0
383	430	5.9	0
383	430	6	0
383	430	6.1	0
383	430	6.2	0
383	430	6.3	0
383	430	6.4	0
383	430	6.5	0
383	430	6.6	0
383	654	6.7	18080
383	654	6.8	0
383	654	6.9	0
383	654	7	0
383	654	7.1	0
383	654	7.2	0
383	654	7.3	0
383	654	7.4	0
383	654	7.5	0
383	654	7.6	0
383	654	7.7	0
383	654	7.8	0
383	654	7.9	0
383	654	8	0
383	654	8.1	0
383	654	8.2	0
383	654	8.3	0
383	654	8.4	0
383	654	8.5	0
383	654	8.6	0
383	654	8.7	0
383	654	8.8	0
383	654	8.9	0
383	654	9	0
383	654	9.1	0
383	654	9.2	0
383	654	9.3	0
383	654	9.4	0
383	654	9.5	0
383	654	9.6	0
383	654	9.7	0
383	654	9.8	0
383	654	9.9	0
383	654	10	0
383	654	10.1	0
383	654	10.2	0
383	654	10.3	0
383	654	10.4	0
383	654	10.5	0
383	654	10.6	0
383	654	10.7	0
383	654	10.8	0
383	654	10.9	0
383	654	11	0
383	654	11.1	0
383	654	11.2	0
383	654	11.3	0
383	654	11.4	0
383	654	11.5	0
383	654	11.6	0
383	654	11.7	0
383	654	11.8	0
383	654	11.9	0
383	654	12	0
383	654	12.1	0
383	654	12.2	0
383	654	12.3	0
383	654	12.4	0
383	654	12.5	0
383	654	12.6	0
383	899	12.7	18080
383	899	12.8	0
383	899	12.9	0
383	899	13	0
383	899	13.1	0
383	899	13.2	0
383	899	13.3	0
383	899	13.4	0
383	899	13.5	0
383	899	13.6	0
383	899	13.7	0
383	899	13.8	0
383	899	13.9	0
383	899	14	0
383	899	14.1	0
383	899	14.2	0
383	899	14.3	0
383	899	14.4	0
383	899	14.5	0
383	899	14.6	0
383	899	14.7	0
383	899	14.8	0
383	899	14.9	0
383	899	15	0
383	899	15.1	0
383	899	15.2	0
383	899	15.3	0
383	899	15.4	0
383	899	15.5	0
383	899	15.6	0
383	899	15.7	0
383	899	15.8	0
383	899	15.9	0
383	899	16	0
383	899	16.1	0
383	899	16.2	0
383	899	16.3	0
383	899	16.4	0
383	899	16.5	0
383	899	16.6	0
383	899	16.7	0
383	899	16.8	0
383	899	16.9	0
383	899	17	0
383	899	17.1	0
383	899	17.2	0
383	899	17.3	0
383	899	17.4	0
383	899	17.5	0
383	899	17.6	0
383	899	17.7	0
383	899	17.8	0
383	899	17.9	0
383	899	18	0
383	899	18.1	0
383	899	18.2	0
383	899	18.3	0
383	899	18.4	0
383	899	18.5	0
383	899	18.6	0
383	931	18.7	18080
383	931	18.8	0
383	931	18.9	0
383	931	19	0
383	931	19.1	0
383	931	19.2	0
383	931	19.3	0
383	931	19.4	0
383	931	19.5	0
383	931	19.6	0
383	931	19.7	0
383	931	19.8	0
383	931	19.9	0
383	931	20	0
384	106	0.602763370378	368
384	120	0.602974890378	1808
384	430	6.602763370378	1808
384	654	12.602763370378	1808
384	899	18.602763370378	1808
385	106	0.1	0
385	106	0.2	0
385	106	0.3	0
385	106	0.4	0
385	106	0.5	0
385	106	0.6	0
385	430	0.7	21760
385	430	0.8	0
385	430	0.9	0
385	430	1	0
385	430	1.1	0
385	430	1.2	0
385	430	1.3	0
385	430	1.4	0
385	430	1.5	0
385	430	1.6	0
385	430	1.7	0
385	430	1.8	0
385	430	1.9	0
385	430	2	0
385	430	2.1	0
385	430	2.2	0
385	430	2.3	0
385	430	2.4	0
385	430	2.5	0
385	430	2.6	0
385	430	2.7	0
385	430	2.8	0
385	430	2.9	0
385	430	3	0
385	430	3.1	0
385	430	3.2	0
385	430	3.3	0
385	430	3.4	0
385	430	3.5	0
385	430	3.6	0
385	430	3.7	0
385	430	3.8	0
385	430	3.9	0
385	430	4	0
385	430	4.1	0
385	430	4.2	0
385	430	4.3	0
385	430	4.4	0
385	430	4.5	0
385	430	4.6	0
385	430	4.7	0
385	430	4.8	0
385	430	4.9	0
385	430	5	0
385	430	5.1	0
385	430	5.2	0
385	430	5.3	0
385	430	5.4	0
385	430	5.5	0
385	430	5.6	0
385	430	5.7	0
385	430	5.8	0
385	430	5.9	0
385	430	6	0
385	430	6.1	0
385	430	6.2	0
385	430	6.3	0
385	430	6.4	0
385	430	6.5	0
385	430	6.6	0
385	654	6.7	18080
385	654	6.8	0
385	654	6.9	0
385	654	7	0
385	654	7.1	0
385	654	7.2	0
385	654	7.3	0
385	654	7.4	0
385	654	7.5	0
385	654	7.6	0
385	654	7.7	0
385	654	7.8	0
385	654	7.9	0
385	654	8	0
385	654	8.1	0
385	654	8.2	0
385	654	8.3	0
385	654	8.4	0
385	654	8.5	0
385	654	8.6	0
385	654	8.7	0
385	654	8.8	0
385	654	8.9	0
385	654	9	0
385	654	9.1	0
385	654	9.2	0
385	654	9.3	0
385	654	9.4	0
385	654	9.5	0
385	654	9.6	0
385	654	9.7	0
385	654	9.8	0
385	654	9.9	0
385	654	10	0
385	654	10.1	0
385	654	10.2	0
385	654	10.3	0
385	654	10.4	0
385	654	10.5	0
385	654	10.6	0
385	654	10.7	0
385	654	10.8	0
385	654	10.9	0
385	654	11	0
385	654	11.1	0
385	654	11.2	0
385	654	11.3	0
385	654	11.4	0
385	654	11.5	0
385	654	11.6	0
385	654	11.7	0
385	654	11.8	0
385	654	11.9	0
385	654	12	0
385	654	12.1	0
385	654	12.2	0
385	654	12.3	0
385	654	12.4	0
385	654	12.5	0
385	654	12.6	0
385	899	12.7	18080
385	899	12.8	0
385	899	12.9	0
385	899	13	0
385	899	13.1	0
385	899	13.2	0
385	899	13.3	0
385	899	13.4	0
385	899	13.5	0
385	899	13.6	0
385	899	13.7	0
385	899	13.8	0
385	899	13.9	0
385	899	14	0
385	899	14.1	0
385	899	14.2	0
385	899	14.3	0
385	899	14.4	0
385	899	14.5	0
385	899	14.6	0
385	899	14.7	0
385	899	14.8	0
385	899	14.9	0
385	899	15	0
385	899	15.1	0
385	899	15.2	0
385	899	15.3	0
385	899	15.4	0
385	899	15.5	0
385	899	15.6	0
385	899	15.7	0
385	899	15.8	0
385	899	15.9	0
385	899	16	0
385	899	16.1	0
385	899	16.2	0
385	899	16.3	0
385	899	16.4	0
385	899	16.5	0
385	899	16.6	0
385	899	16.7	0
385	899	16.8	0
385	899	16.9	0
385	899	17	0
385	899	17.1	0
385	899	17.2	0
385	899	17.3	0
385	899	17.4	0
385	899	17.5	0
385	899	17.6	0
385	899	17.7	0
385	899	17.8	0
385	899	17.9	0
385	899	18	0
385	899	18.1	0
385	899	18.2	0
385	899	18.3	0
385	899	18.4	0
385	899	18.5	0
385	899	18.6	0
385	931	18.7	18080
385	931	18.8	0
385	931	18.9	0
385	931	19	0
385	931	19.1	0
385	931	19.2	0
385	931	19.3	0
385	931	19.4	0
385	931	19.5	0
385	931	19.6	0
385	931	19.7	0
385	931	19.8	0
385	931	19.9	0
385	931	20	0
390	107	0.602769130378	64
390	121	0.602993610378	226
390	431	6.602782090378	226
390	655	12.602782090378	226
390	900	18.602782090378	226
391	116	0.602974890378	64
391	131	0.603200170378	74
391	441	6.602988650378	74
391	665	12.602988650378	74
391	910	18.602988650378	74
392	116	0.602974890378	64
392	131	0.603200170378	74
392	441	6.602988650378	74
392	665	12.602988650378	74
392	910	18.602988650378	74
395	106	0.602763370378	46
395	120	0.602974890378	226
395	430	6.602763370378	226
395	654	12.602763370378	226
395	899	18.602763370378	226
407	104	0.602763370378	28
409	103	0.602763370378	188
409	427	6.602763370378	188
409	651	12.602763370378	188
409	896	18.602763370378	188
411	0	0	0
412	0	0	0
413	0	0	0
415	931	0.1	0
415	931	0.2	0
415	931	0.3	0
415	931	0.4	0
415	931	0.5	0
415	931	0.6	0
415	931	0.7	0
415	931	0.8	0
415	931	0.9	0
415	931	1	0
415	931	1.1	0
415	931	1.2	0
415	931	1.3	0
415	931	1.4	0
415	931	1.5	0
415	931	1.6	0
415	931	1.7	0
415	931	1.8	0
415	931	1.9	0
415	931	2	0
415	931	2.1	0
415	931	2.2	0
415	931	2.3	0
415	931	2.4	0
415	931	2.5	0
415	931	2.6	0
415	931	2.7	0
415	931	2.8	0
415	931	2.9	0
415	931	3	0
415	931	3.1	0
415	931	3.2	0
415	931	3.3	0
415	931	3.4	0
415	931	3.5	0
415	931	3.6	0
415	931	3.7	0
415	931	3.8	0
415	931	3.9	0
415	931	4	0
415	931	4.1	0
415	931	4.2	0
415	931	4.3	0
415	931	4.4	0
415	931	4.5	0
415	931	4.6	0
415	931	4.7	0
415	931	4.8	0
415	931	4.9	0
415	931	5	0
415	931	5.1	0
415	931	5.2	0
415	931	5.3	0
415	931	5.4	0
415	931	5.5	0
415	931	5.6	0
415	931	5.7	0
415	931	5.8	0
415	931	5.9	0
415	931	6	0
415	931	6.1	0
415	931	6.2	0
415	931	6.3	0
415	931	6.4	0
415	931	6.5	0
415	931	6.6	0
415	931	6.7	0
415	931	6.8	0
415	931	6.9	0
415	931	7	0
415	931	7.1	0
415	931	7.2	0
415	931	7.3	0
415	931	7.4	0
415	931	7.5	0
415	931	7.6	0
415	931	7.7	0
415	931	7.8	0
415	931	7.9	0
415	931	8	0
415	931	8.1	0
415	931	8.2	0
415	931	8.3	0
415	931	8.4	0
415	931	8.5	0
415	931	8.6	0
415	931	8.7	0
415	931	8.8	0
415	931	8.9	0
415	931	9	0
415	931	9.1	0
415	931	9.2	0
415	931	9.3	0
415	931	9.4	0
415	931	9.5	0
415	931	9.6	0
415	931	9.7	0
415	931	9.8	0
415	931	9.9	0
415	931	10	0
415	931	10.1	0
415	931	10.2	0
415	931	10.3	0
415	931	10.4	0
415	931	10.5	0
415	931	10.6	0
415	931	10.7	0
415	931	10.8	0
415	931	10.9	0
415	931	11	0
415	931	11.1	0
415	931	11.2	0
415	931	11.3	0
415	931	11.4	0
415	931	11.5	0
415	931	11.6	0
415	931	11.7	0
415	931	11.8	0
415	931	11.9	0
415	931	12	0
415	931	12.1	0
415	931	12.2	0
415	931	12.3	0
415	931	12.4	0
415	931	12.5	0
415	931	12.6	0
415	931	12.7	0
415	931	12.8	0
415	931	12.9	0
415	931	13	0
415	931	13.1	0
415	931	13.2	0
415	931	13.3	0
415	931	13.4	0
415	931	13.5	0
415	931	13.6	0
415	931	13.7	0
415	931	13.8	0
415	931	13.9	0
415	931	14	0
415	931	14.1	0
415	931	14.2	0
415	931	14.3	0
415	931	14.4	0
415	931	14.5	0
415	931	14.6	0
415	931	14.7	0
415	931	14.8	0
415	931	14.9	0
415	931	15	0
415	931	15.1	0
415	931	15.2	0
415	931	15.3	0
415	931	15.4	0
415	931	15.5	0
415	931	15.6	0
415	931	15.7	0
415	931	15.8	0
415	931	15.9	0
415	931	16	0
415	931	16.1	0
415	931	16.2	0
415	931	16.3	0
415	931	16.4	0
415	931	16.5	0
415	931	16.6	0
415	931	16.7	0
415	931	16.8	0
415	931	16.9	0
415	931	17	0
415	931	17.1	0
415	931	17.2	0
415	931	17.3	0
415	931	17.4	0
415	931	17.5	0
415	931	17.6	0
415	931	17.7	0
415	931	17.8	0
415	931	17.9	0
415	931	18	0
415	931	18.1	0
415	931	18.2	0
415	931	18.3	0
415	931	18.4	0
415	931	18.5	0
415	931	18.6	0
415	931	18.7	0
415	931	18.8	0
415	931	18.9	0
415	931	19	0
415	931	19.1	0
415	931	19.2	0
415	931	19.3	0
415	931	19.4	0
415	931	19.5	0
415	931	19.6	0
415	931	19.7	0
415	931	19.8	0
415	931	19.9	0
415	931	20	0
416	101	0.602763370378	180
416	426	6.602763370378	180
416	650	12.602763370378	180
416	895	18.602763370378	180

